data_image0
_cell_length_a       23.579
_cell_length_b       23.579
_cell_length_c       23.579
_cell_angle_alpha    90
_cell_angle_beta     90
_cell_angle_gamma    90

_symmetry_space_group_name_H-M    "P 1"
_symmetry_int_tables_number       1

loop_
  _symmetry_equiv_pos_as_xyz
  'x, y, z'

loop_
  _atom_site_label
  _atom_site_occupancy
  _atom_site_fract_x
  _atom_site_fract_y
  _atom_site_fract_z
  _atom_site_thermal_displace_type
  _atom_site_B_iso_or_equiv
  _atom_site_type_symbol
  C1       1.0000 0.76259  0.75983  0.63141  Biso   1.000  C
  C2       1.0000 0.78481  0.71106  0.59311  Biso   1.000  C
  C3       1.0000 0.71521  0.78896  0.59311  Biso   1.000  C
  H1       1.0000 0.75393  0.75521  0.66703  Biso   1.000  H
  H2       1.0000 0.74613  0.74482  0.66703  Biso   1.000  H
  H3       1.0000 0.79321  0.78693  0.64082  Biso   1.000  H
  C4       1.0000 0.78006  0.73824  0.53450  Biso   1.000  C
  H4       1.0000 0.82391  0.69952  0.60333  Biso   1.000  H
  H5       1.0000 0.76203  0.67590  0.59540  Biso   1.000  H
  C5       1.0000 0.73744  0.74023  0.63141  Biso   1.000  C
  H6       1.0000 0.82302  0.71771  0.60931  Biso   1.000  H
  H7       1.0000 0.77832  0.66962  0.59070  Biso   1.000  H
  C6       1.0000 0.71996  0.76178  0.53450  Biso   1.000  C
  H8       1.0000 0.67611  0.80050  0.60333  Biso   1.000  H
  H9       1.0000 0.73803  0.82412  0.59540  Biso   1.000  H
  H10      1.0000 0.67700  0.78231  0.60931  Biso   1.000  H
  H11      1.0000 0.72170  0.83040  0.59070  Biso   1.000  H
  N1       1.0000 0.78930  0.69914  0.48802  Biso   1.000  N
  H12      1.0000 0.80771  0.77030  0.53162  Biso   1.000  H
  H13      1.0000 0.70682  0.71313  0.64082  Biso   1.000  H
  N2       1.0000 0.71076  0.80088  0.48802  Biso   1.000  N
  H14      1.0000 0.69231  0.72972  0.53162  Biso   1.000  H
  C7       1.0000 0.82756  0.71237  0.45256  Biso   1.000  C
  C8       1.0000 0.67246  0.78765  0.45256  Biso   1.000  C
  C9       1.0000 0.84088  0.67785  0.40248  Biso   1.000  C
  H15      1.0000 0.84864  0.74621  0.45871  Biso   1.000  H
  H16      1.0000 0.65143  0.75381  0.45871  Biso   1.000  H
  C10      1.0000 0.65915  0.82217  0.40248  Biso   1.000  C
  C11      1.0000 0.80818  0.63065  0.38763  Biso   1.000  C
  C12      1.0000 0.88761  0.69184  0.36940  Biso   1.000  C
  C13      1.0000 0.61241  0.80818  0.36940  Biso   1.000  C
  C14      1.0000 0.69184  0.86938  0.38763  Biso   1.000  C
  C15      1.0000 0.82217  0.59752  0.34085  Biso   1.000  C
  H17      1.0000 0.77590  0.62102  0.40981  Biso   1.000  H
  C16      1.0000 0.90250  0.65915  0.32215  Biso   1.000  C
  H18      1.0000 0.90984  0.72412  0.37902  Biso   1.000  H
  C17      1.0000 0.59752  0.84088  0.32215  Biso   1.000  C
  H19      1.0000 0.59023  0.77590  0.37902  Biso   1.000  H
  C18      1.0000 0.67785  0.90250  0.34085  Biso   1.000  C
  H20      1.0000 0.72412  0.87900  0.40981  Biso   1.000  H
  C19      1.0000 0.78765  0.54744  0.32754  Biso   1.000  C
  C20      1.0000 0.86938  0.61241  0.30816  Biso   1.000  C
  C21      1.0000 0.95258  0.67246  0.28763  Biso   1.000  C
  C22      1.0000 0.54744  0.82756  0.28763  Biso   1.000  C
  C23      1.0000 0.63065  0.88761  0.30816  Biso   1.000  C
  C24      1.0000 0.71237  0.95258  0.32754  Biso   1.000  C
  N3       1.0000 0.80088  0.51202  0.28928  Biso   1.000  N
  H21      1.0000 0.75381  0.54133  0.34862  Biso   1.000  H
  H22      1.0000 0.87900  0.59023  0.27592  Biso   1.000  H
  N4       1.0000 0.98800  0.71076  0.30086  Biso   1.000  N
  H23      1.0000 0.95873  0.65143  0.25379  Biso   1.000  H
  N5       1.0000 0.51202  0.78930  0.30086  Biso   1.000  N
  H24      1.0000 0.54133  0.84864  0.25379  Biso   1.000  H
  H25      1.0000 0.62102  0.90984  0.27592  Biso   1.000  H
  N6       1.0000 0.69914  0.98800  0.28928  Biso   1.000  N
  H26      1.0000 0.74621  0.95873  0.34862  Biso   1.000  H
  C25      1.0000 0.76178  0.46554  0.28008  Biso   1.000  C
  C26      1.0000 0.03448  0.71996  0.26176  Biso   1.000  C
  C27      1.0000 0.46554  0.78006  0.26176  Biso   1.000  C
  C28      1.0000 0.73824  0.03448  0.28008  Biso   1.000  C
  C29      1.0000 0.73824  0.46554  0.21994  Biso   1.000  C
  C30      1.0000 0.78896  0.40689  0.28483  Biso   1.000  C
  H27      1.0000 0.72972  0.46843  0.30769  Biso   1.000  H
  C31      1.0000 0.03448  0.78006  0.23826  Biso   1.000  C
  H28      1.0000 0.03164  0.69231  0.22970  Biso   1.000  H
  C32      1.0000 0.09313  0.71521  0.28899  Biso   1.000  C
  C33      1.0000 0.46554  0.71996  0.23826  Biso   1.000  C
  H29      1.0000 0.46843  0.80771  0.22970  Biso   1.000  H
  C34      1.0000 0.40689  0.78481  0.28899  Biso   1.000  C
  C35      1.0000 0.76178  0.03448  0.21994  Biso   1.000  C
  H30      1.0000 0.77030  0.03164  0.30769  Biso   1.000  H
  C36      1.0000 0.71106  0.09313  0.28483  Biso   1.000  C
  C37      1.0000 0.71106  0.40689  0.21519  Biso   1.000  C
  N7       1.0000 0.69914  0.51202  0.21074  Biso   1.000  N
  H31      1.0000 0.77030  0.46843  0.19229  Biso   1.000  H
  C38      1.0000 0.74023  0.36863  0.26256  Biso   1.000  C
  C39      1.0000 0.75983  0.36863  0.23746  Biso   1.000  C
  H32      1.0000 0.80050  0.39671  0.32389  Biso   1.000  H
  H33      1.0000 0.82412  0.40460  0.26201  Biso   1.000  H
  H34      1.0000 0.78231  0.39073  0.32300  Biso   1.000  H
  H35      1.0000 0.83040  0.40930  0.27830  Biso   1.000  H
  N8       1.0000 0.98800  0.78930  0.19912  Biso   1.000  N
  H36      1.0000 0.03164  0.80771  0.27033  Biso   1.000  H
  C40      1.0000 0.09313  0.78481  0.21104  Biso   1.000  C
  H37      1.0000 0.10327  0.67611  0.30052  Biso   1.000  H
  H38      1.0000 0.09538  0.73803  0.32410  Biso   1.000  H
  C41      1.0000 0.13139  0.76259  0.25981  Biso   1.000  C
  C42      1.0000 0.13139  0.73744  0.24021  Biso   1.000  C
  H39      1.0000 0.10929  0.67700  0.28229  Biso   1.000  H
  H40      1.0000 0.09072  0.72170  0.33042  Biso   1.000  H
  N9       1.0000 0.51202  0.71076  0.19912  Biso   1.000  N
  H41      1.0000 0.46843  0.69231  0.27033  Biso   1.000  H
  C43      1.0000 0.40689  0.71521  0.21104  Biso   1.000  C
  C44      1.0000 0.36863  0.73744  0.25981  Biso   1.000  C
  C45      1.0000 0.36863  0.76259  0.24021  Biso   1.000  C
  H42      1.0000 0.39671  0.82391  0.30052  Biso   1.000  H
  H43      1.0000 0.40460  0.76203  0.32410  Biso   1.000  H
  H44      1.0000 0.39073  0.82302  0.28229  Biso   1.000  H
  H45      1.0000 0.40930  0.77832  0.33042  Biso   1.000  H
  N10      1.0000 0.80088  0.98800  0.21074  Biso   1.000  N
  H46      1.0000 0.72972  0.03164  0.19229  Biso   1.000  H
  C46      1.0000 0.78896  0.09313  0.21519  Biso   1.000  C
  H47      1.0000 0.69952  0.10327  0.32389  Biso   1.000  H
  H48      1.0000 0.67590  0.09538  0.26201  Biso   1.000  H
  C47      1.0000 0.74023  0.13139  0.23746  Biso   1.000  C
  C48      1.0000 0.75983  0.13139  0.26256  Biso   1.000  C
  H49      1.0000 0.71771  0.10929  0.32300  Biso   1.000  H
  H50      1.0000 0.66962  0.09072  0.27830  Biso   1.000  H
  H51      1.0000 0.69952  0.39671  0.17609  Biso   1.000  H
  H52      1.0000 0.67590  0.40460  0.23801  Biso   1.000  H
  H53      1.0000 0.71771  0.39073  0.17702  Biso   1.000  H
  H54      1.0000 0.66962  0.40930  0.22172  Biso   1.000  H
  C49      1.0000 0.71237  0.54744  0.17248  Biso   1.000  C
  H55      1.0000 0.71313  0.35922  0.29323  Biso   1.000  H
  H56      1.0000 0.75521  0.33301  0.24611  Biso   1.000  H
  H57      1.0000 0.74482  0.33301  0.25391  Biso   1.000  H
  H58      1.0000 0.78693  0.35922  0.20679  Biso   1.000  H
  C50      1.0000 0.95258  0.82756  0.21235  Biso   1.000  C
  H59      1.0000 0.10327  0.82391  0.19950  Biso   1.000  H
  H60      1.0000 0.09538  0.76203  0.17592  Biso   1.000  H
  H61      1.0000 0.10929  0.82302  0.21769  Biso   1.000  H
  H62      1.0000 0.09072  0.77832  0.16960  Biso   1.000  H
  H63      1.0000 0.16701  0.75393  0.25518  Biso   1.000  H
  H64      1.0000 0.14080  0.79321  0.28691  Biso   1.000  H
  H65      1.0000 0.16701  0.74613  0.24479  Biso   1.000  H
  H66      1.0000 0.14080  0.70682  0.21311  Biso   1.000  H
  C51      1.0000 0.54744  0.67246  0.21235  Biso   1.000  C
  H67      1.0000 0.39671  0.67611  0.19950  Biso   1.000  H
  H68      1.0000 0.40460  0.73803  0.17592  Biso   1.000  H
  H69      1.0000 0.39073  0.67700  0.21769  Biso   1.000  H
  H70      1.0000 0.40930  0.72170  0.16960  Biso   1.000  H
  H71      1.0000 0.35922  0.70682  0.28691  Biso   1.000  H
  H72      1.0000 0.33301  0.75393  0.24479  Biso   1.000  H
  H73      1.0000 0.33301  0.74613  0.25518  Biso   1.000  H
  H74      1.0000 0.35922  0.79321  0.21311  Biso   1.000  H
  C52      1.0000 0.78765  0.95258  0.17248  Biso   1.000  C
  H75      1.0000 0.80050  0.10327  0.17609  Biso   1.000  H
  H76      1.0000 0.82412  0.09538  0.23801  Biso   1.000  H
  H77      1.0000 0.78231  0.10929  0.17702  Biso   1.000  H
  H78      1.0000 0.83040  0.09072  0.22172  Biso   1.000  H
  H79      1.0000 0.71313  0.14080  0.20679  Biso   1.000  H
  H80      1.0000 0.75521  0.16701  0.25391  Biso   1.000  H
  H81      1.0000 0.74482  0.16701  0.24611  Biso   1.000  H
  H82      1.0000 0.78693  0.14080  0.29323  Biso   1.000  H
  H83      1.0000 0.74621  0.54133  0.15141  Biso   1.000  H
  C53      1.0000 0.67785  0.59752  0.15917  Biso   1.000  C
  H84      1.0000 0.95873  0.84864  0.24619  Biso   1.000  H
  C54      1.0000 0.90250  0.84088  0.17783  Biso   1.000  C
  C55      1.0000 0.59752  0.65915  0.17783  Biso   1.000  C
  H85      1.0000 0.54133  0.65143  0.24619  Biso   1.000  H
  C56      1.0000 0.82217  0.90250  0.15917  Biso   1.000  C
  H86      1.0000 0.75381  0.95873  0.15141  Biso   1.000  H
  C57      1.0000 0.63065  0.61241  0.19182  Biso   1.000  C
  C58      1.0000 0.69184  0.63065  0.11239  Biso   1.000  C
  C59      1.0000 0.88761  0.80818  0.13062  Biso   1.000  C
  C60      1.0000 0.86938  0.88761  0.19182  Biso   1.000  C
  C61      1.0000 0.61241  0.69184  0.13062  Biso   1.000  C
  C62      1.0000 0.80818  0.86938  0.11239  Biso   1.000  C
  H87      1.0000 0.62102  0.59023  0.22410  Biso   1.000  H
  C63      1.0000 0.65915  0.67785  0.09754  Biso   1.000  C
  H88      1.0000 0.72412  0.62102  0.09021  Biso   1.000  H
  C64      1.0000 0.84088  0.82217  0.09754  Biso   1.000  C
  H89      1.0000 0.90984  0.77590  0.12100  Biso   1.000  H
  H90      1.0000 0.87900  0.90984  0.22410  Biso   1.000  H
  H91      1.0000 0.59023  0.72412  0.12100  Biso   1.000  H
  H92      1.0000 0.77590  0.87900  0.09021  Biso   1.000  H
  C65      1.0000 0.67246  0.71237  0.04742  Biso   1.000  C
  C66      1.0000 0.82756  0.78765  0.04742  Biso   1.000  C
  N11      1.0000 0.71076  0.69914  0.01200  Biso   1.000  N
  H93      1.0000 0.65143  0.74621  0.04131  Biso   1.000  H
  N12      1.0000 0.78930  0.80088  0.01200  Biso   1.000  N
  H94      1.0000 0.84864  0.75381  0.04131  Biso   1.000  H
  C67      1.0000 0.71996  0.73824  0.96556  Biso   1.000  C
  C68      1.0000 0.78006  0.76178  0.96556  Biso   1.000  C
  H95      1.0000 0.69231  0.77030  0.96840  Biso   1.000  H
  C69      1.0000 0.71521  0.71106  0.90691  Biso   1.000  C
  H96      1.0000 0.80771  0.72972  0.96840  Biso   1.000  H
  C70      1.0000 0.78481  0.78896  0.90691  Biso   1.000  C
  H97      1.0000 0.67611  0.69952  0.89673  Biso   1.000  H
  H98      1.0000 0.73803  0.67590  0.90466  Biso   1.000  H
  C71      1.0000 0.73744  0.75983  0.86865  Biso   1.000  C
  C72      1.0000 0.76259  0.74023  0.86865  Biso   1.000  C
  H99      1.0000 0.67700  0.71771  0.89071  Biso   1.000  H
  H100     1.0000 0.72170  0.66962  0.90933  Biso   1.000  H
  H101     1.0000 0.82391  0.80050  0.89673  Biso   1.000  H
  H102     1.0000 0.76203  0.82412  0.90466  Biso   1.000  H
  H103     1.0000 0.82302  0.78231  0.89071  Biso   1.000  H
  H104     1.0000 0.77832  0.83040  0.90933  Biso   1.000  H
  H105     1.0000 0.70682  0.78693  0.85924  Biso   1.000  H
  H106     1.0000 0.75393  0.74482  0.83303  Biso   1.000  H
  H107     1.0000 0.74613  0.75521  0.83303  Biso   1.000  H
  H108     1.0000 0.79321  0.71313  0.85924  Biso   1.000  H
  C73      1.0000 0.75983  0.63141  0.76259  Biso   1.000  C
  C74      1.0000 0.78896  0.59311  0.71521  Biso   1.000  C
  C75      1.0000 0.71106  0.59311  0.78481  Biso   1.000  C
  H109     1.0000 0.75521  0.66703  0.75393  Biso   1.000  H
  H110     1.0000 0.74482  0.66703  0.74613  Biso   1.000  H
  H111     1.0000 0.78693  0.64082  0.79321  Biso   1.000  H
  C76      1.0000 0.76178  0.53450  0.71996  Biso   1.000  C
  H112     1.0000 0.80050  0.60333  0.67611  Biso   1.000  H
  H113     1.0000 0.82412  0.59540  0.73803  Biso   1.000  H
  C77      1.0000 0.74023  0.63141  0.73744  Biso   1.000  C
  H114     1.0000 0.78231  0.60931  0.67700  Biso   1.000  H
  H115     1.0000 0.83040  0.59070  0.72170  Biso   1.000  H
  C78      1.0000 0.73824  0.53450  0.78006  Biso   1.000  C
  H116     1.0000 0.69952  0.60333  0.82391  Biso   1.000  H
  H117     1.0000 0.67590  0.59540  0.76203  Biso   1.000  H
  H118     1.0000 0.71771  0.60931  0.82302  Biso   1.000  H
  H119     1.0000 0.66962  0.59070  0.77832  Biso   1.000  H
  N13      1.0000 0.80088  0.48802  0.71076  Biso   1.000  N
  H120     1.0000 0.72972  0.53162  0.69231  Biso   1.000  H
  H121     1.0000 0.71313  0.64082  0.70682  Biso   1.000  H
  N14      1.0000 0.69914  0.48802  0.78930  Biso   1.000  N
  H122     1.0000 0.77030  0.53162  0.80771  Biso   1.000  H
  C79      1.0000 0.78765  0.45256  0.67246  Biso   1.000  C
  C80      1.0000 0.71237  0.45256  0.82756  Biso   1.000  C
  C81      1.0000 0.82217  0.40248  0.65915  Biso   1.000  C
  H123     1.0000 0.75381  0.45871  0.65143  Biso   1.000  H
  H124     1.0000 0.74621  0.45871  0.84864  Biso   1.000  H
  C82      1.0000 0.67785  0.40248  0.84088  Biso   1.000  C
  C83      1.0000 0.80818  0.36940  0.61241  Biso   1.000  C
  C84      1.0000 0.86938  0.38763  0.69184  Biso   1.000  C
  C85      1.0000 0.63065  0.38763  0.80818  Biso   1.000  C
  C86      1.0000 0.69184  0.36940  0.88761  Biso   1.000  C
  C87      1.0000 0.84088  0.32215  0.59752  Biso   1.000  C
  H125     1.0000 0.77590  0.37902  0.59023  Biso   1.000  H
  C88      1.0000 0.90250  0.34085  0.67785  Biso   1.000  C
  H126     1.0000 0.87900  0.40981  0.72412  Biso   1.000  H
  C89      1.0000 0.59752  0.34085  0.82217  Biso   1.000  C
  H127     1.0000 0.62102  0.40981  0.77590  Biso   1.000  H
  C90      1.0000 0.65915  0.32215  0.90250  Biso   1.000  C
  H128     1.0000 0.72412  0.37902  0.90984  Biso   1.000  H
  C91      1.0000 0.82756  0.28763  0.54744  Biso   1.000  C
  C92      1.0000 0.88761  0.30816  0.63065  Biso   1.000  C
  C93      1.0000 0.95258  0.32754  0.71237  Biso   1.000  C
  C94      1.0000 0.54744  0.32754  0.78765  Biso   1.000  C
  C95      1.0000 0.61241  0.30816  0.86938  Biso   1.000  C
  C96      1.0000 0.67246  0.28763  0.95258  Biso   1.000  C
  N15      1.0000 0.78930  0.30086  0.51202  Biso   1.000  N
  H129     1.0000 0.84864  0.25379  0.54133  Biso   1.000  H
  H130     1.0000 0.90984  0.27592  0.62102  Biso   1.000  H
  N16      1.0000 0.98800  0.28928  0.69914  Biso   1.000  N
  H131     1.0000 0.95873  0.34862  0.74621  Biso   1.000  H
  N17      1.0000 0.51202  0.28928  0.80088  Biso   1.000  N
  H132     1.0000 0.54133  0.34862  0.75381  Biso   1.000  H
  H133     1.0000 0.59023  0.27592  0.87900  Biso   1.000  H
  N18      1.0000 0.71076  0.30086  0.98800  Biso   1.000  N
  H134     1.0000 0.65143  0.25379  0.95873  Biso   1.000  H
  C97      1.0000 0.78006  0.26176  0.46554  Biso   1.000  C
  C98      1.0000 0.03448  0.28008  0.73824  Biso   1.000  C
  C99      1.0000 0.46554  0.28008  0.76178  Biso   1.000  C
  C100     1.0000 0.71996  0.26176  0.03448  Biso   1.000  C
  C101     1.0000 0.71996  0.23826  0.46554  Biso   1.000  C
  C102     1.0000 0.78481  0.28899  0.40689  Biso   1.000  C
  H135     1.0000 0.80771  0.22970  0.46843  Biso   1.000  H
  C103     1.0000 0.03448  0.21994  0.76178  Biso   1.000  C
  H136     1.0000 0.03164  0.30769  0.77030  Biso   1.000  H
  C104     1.0000 0.09313  0.28483  0.71106  Biso   1.000  C
  C105     1.0000 0.46554  0.21994  0.73824  Biso   1.000  C
  H137     1.0000 0.46843  0.30769  0.72972  Biso   1.000  H
  C106     1.0000 0.40689  0.28483  0.78896  Biso   1.000  C
  C107     1.0000 0.78006  0.23826  0.03448  Biso   1.000  C
  H138     1.0000 0.69231  0.22970  0.03164  Biso   1.000  H
  C108     1.0000 0.71521  0.28899  0.09313  Biso   1.000  C
  C109     1.0000 0.71521  0.21104  0.40689  Biso   1.000  C
  N19      1.0000 0.71076  0.19912  0.51202  Biso   1.000  N
  H139     1.0000 0.69231  0.27033  0.46843  Biso   1.000  H
  C110     1.0000 0.73744  0.25981  0.36863  Biso   1.000  C
  C111     1.0000 0.76259  0.24021  0.36863  Biso   1.000  C
  H140     1.0000 0.82391  0.30052  0.39671  Biso   1.000  H
  H141     1.0000 0.76203  0.32410  0.40460  Biso   1.000  H
  H142     1.0000 0.82302  0.28229  0.39073  Biso   1.000  H
  H143     1.0000 0.77832  0.33042  0.40930  Biso   1.000  H
  N20      1.0000 0.98800  0.21074  0.80088  Biso   1.000  N
  H144     1.0000 0.03164  0.19229  0.72972  Biso   1.000  H
  C112     1.0000 0.09313  0.21519  0.78896  Biso   1.000  C
  H145     1.0000 0.10327  0.32389  0.69952  Biso   1.000  H
  H146     1.0000 0.09538  0.26201  0.67590  Biso   1.000  H
  C113     1.0000 0.13139  0.23746  0.74023  Biso   1.000  C
  C114     1.0000 0.13139  0.26256  0.75983  Biso   1.000  C
  H147     1.0000 0.10929  0.32300  0.71771  Biso   1.000  H
  H148     1.0000 0.09072  0.27830  0.66962  Biso   1.000  H
  N21      1.0000 0.51202  0.21074  0.69914  Biso   1.000  N
  H149     1.0000 0.46843  0.19229  0.77030  Biso   1.000  H
  C115     1.0000 0.40689  0.21519  0.71106  Biso   1.000  C
  C116     1.0000 0.36863  0.26256  0.74023  Biso   1.000  C
  C117     1.0000 0.36863  0.23746  0.75983  Biso   1.000  C
  H150     1.0000 0.39671  0.32389  0.80050  Biso   1.000  H
  H151     1.0000 0.40460  0.26201  0.82412  Biso   1.000  H
  H152     1.0000 0.39073  0.32300  0.78231  Biso   1.000  H
  H153     1.0000 0.40930  0.27830  0.83040  Biso   1.000  H
  N22      1.0000 0.78930  0.19912  0.98800  Biso   1.000  N
  H154     1.0000 0.80771  0.27033  0.03164  Biso   1.000  H
  C118     1.0000 0.78481  0.21104  0.09313  Biso   1.000  C
  H155     1.0000 0.67611  0.30052  0.10327  Biso   1.000  H
  H156     1.0000 0.73803  0.32410  0.09538  Biso   1.000  H
  C119     1.0000 0.73744  0.24021  0.13139  Biso   1.000  C
  C120     1.0000 0.76259  0.25981  0.13139  Biso   1.000  C
  H157     1.0000 0.67700  0.28229  0.10929  Biso   1.000  H
  H158     1.0000 0.72170  0.33042  0.09072  Biso   1.000  H
  H159     1.0000 0.67611  0.19950  0.39671  Biso   1.000  H
  H160     1.0000 0.73803  0.17592  0.40460  Biso   1.000  H
  H161     1.0000 0.67700  0.21769  0.39073  Biso   1.000  H
  H162     1.0000 0.72170  0.16960  0.40930  Biso   1.000  H
  C121     1.0000 0.67246  0.21235  0.54744  Biso   1.000  C
  H163     1.0000 0.70682  0.28691  0.35922  Biso   1.000  H
  H164     1.0000 0.75393  0.24479  0.33301  Biso   1.000  H
  H165     1.0000 0.74613  0.25518  0.33301  Biso   1.000  H
  H166     1.0000 0.79321  0.21311  0.35922  Biso   1.000  H
  C122     1.0000 0.95258  0.17248  0.78765  Biso   1.000  C
  H167     1.0000 0.10327  0.17609  0.80050  Biso   1.000  H
  H168     1.0000 0.09538  0.23801  0.82412  Biso   1.000  H
  H169     1.0000 0.10929  0.17702  0.78231  Biso   1.000  H
  H170     1.0000 0.09072  0.22172  0.83040  Biso   1.000  H
  H171     1.0000 0.16701  0.24611  0.74482  Biso   1.000  H
  H172     1.0000 0.14080  0.20679  0.71313  Biso   1.000  H
  H173     1.0000 0.16701  0.25391  0.75521  Biso   1.000  H
  H174     1.0000 0.14080  0.29323  0.78693  Biso   1.000  H
  C123     1.0000 0.54744  0.17248  0.71237  Biso   1.000  C
  H175     1.0000 0.39671  0.17609  0.69952  Biso   1.000  H
  H176     1.0000 0.40460  0.23801  0.67590  Biso   1.000  H
  H177     1.0000 0.39073  0.17702  0.71771  Biso   1.000  H
  H178     1.0000 0.40930  0.22172  0.66962  Biso   1.000  H
  H179     1.0000 0.35922  0.29323  0.71313  Biso   1.000  H
  H180     1.0000 0.33301  0.24611  0.75521  Biso   1.000  H
  H181     1.0000 0.33301  0.25391  0.74482  Biso   1.000  H
  H182     1.0000 0.35922  0.20679  0.78693  Biso   1.000  H
  C124     1.0000 0.82756  0.21235  0.95258  Biso   1.000  C
  H183     1.0000 0.82391  0.19950  0.10327  Biso   1.000  H
  H184     1.0000 0.76203  0.17592  0.09538  Biso   1.000  H
  H185     1.0000 0.82302  0.21769  0.10929  Biso   1.000  H
  H186     1.0000 0.77832  0.16960  0.09072  Biso   1.000  H
  H187     1.0000 0.70682  0.21311  0.14080  Biso   1.000  H
  H188     1.0000 0.75393  0.25518  0.16701  Biso   1.000  H
  H189     1.0000 0.74613  0.24479  0.16701  Biso   1.000  H
  H190     1.0000 0.79321  0.28691  0.14080  Biso   1.000  H
  H191     1.0000 0.65143  0.24619  0.54133  Biso   1.000  H
  C125     1.0000 0.65915  0.17783  0.59752  Biso   1.000  C
  H192     1.0000 0.95873  0.15141  0.75381  Biso   1.000  H
  C126     1.0000 0.90250  0.15917  0.82217  Biso   1.000  C
  C127     1.0000 0.59752  0.15917  0.67785  Biso   1.000  C
  H193     1.0000 0.54133  0.15141  0.74621  Biso   1.000  H
  C128     1.0000 0.84088  0.17783  0.90250  Biso   1.000  C
  H194     1.0000 0.84864  0.24619  0.95873  Biso   1.000  H
  C129     1.0000 0.61241  0.19182  0.63065  Biso   1.000  C
  C130     1.0000 0.69184  0.13062  0.61241  Biso   1.000  C
  C131     1.0000 0.86938  0.11239  0.80818  Biso   1.000  C
  C132     1.0000 0.88761  0.19182  0.86938  Biso   1.000  C
  C133     1.0000 0.63065  0.11239  0.69184  Biso   1.000  C
  C134     1.0000 0.80818  0.13062  0.88761  Biso   1.000  C
  H195     1.0000 0.59023  0.22410  0.62102  Biso   1.000  H
  C135     1.0000 0.67785  0.09754  0.65915  Biso   1.000  C
  H196     1.0000 0.72412  0.12100  0.59023  Biso   1.000  H
  C136     1.0000 0.82217  0.09754  0.84088  Biso   1.000  C
  H197     1.0000 0.87900  0.09021  0.77590  Biso   1.000  H
  H198     1.0000 0.90984  0.22410  0.87900  Biso   1.000  H
  H199     1.0000 0.62102  0.09021  0.72412  Biso   1.000  H
  H200     1.0000 0.77590  0.12100  0.90984  Biso   1.000  H
  C137     1.0000 0.71237  0.04742  0.67246  Biso   1.000  C
  C138     1.0000 0.78765  0.04742  0.82756  Biso   1.000  C
  N23      1.0000 0.69914  0.01200  0.71076  Biso   1.000  N
  H201     1.0000 0.74621  0.04131  0.65143  Biso   1.000  H
  N24      1.0000 0.80088  0.01200  0.78930  Biso   1.000  N
  H202     1.0000 0.75381  0.04131  0.84864  Biso   1.000  H
  C139     1.0000 0.73824  0.96556  0.71996  Biso   1.000  C
  C140     1.0000 0.76178  0.96556  0.78006  Biso   1.000  C
  H203     1.0000 0.77030  0.96840  0.69231  Biso   1.000  H
  C141     1.0000 0.71106  0.90691  0.71521  Biso   1.000  C
  H204     1.0000 0.72972  0.96840  0.80771  Biso   1.000  H
  C142     1.0000 0.78896  0.90691  0.78481  Biso   1.000  C
  H205     1.0000 0.69952  0.89673  0.67611  Biso   1.000  H
  H206     1.0000 0.67590  0.90466  0.73803  Biso   1.000  H
  C143     1.0000 0.74023  0.86865  0.76259  Biso   1.000  C
  C144     1.0000 0.75983  0.86865  0.73744  Biso   1.000  C
  H207     1.0000 0.71771  0.89071  0.67700  Biso   1.000  H
  H208     1.0000 0.66962  0.90933  0.72170  Biso   1.000  H
  H209     1.0000 0.80050  0.89673  0.82391  Biso   1.000  H
  H210     1.0000 0.82412  0.90466  0.76203  Biso   1.000  H
  H211     1.0000 0.78231  0.89071  0.82302  Biso   1.000  H
  H212     1.0000 0.83040  0.90933  0.77832  Biso   1.000  H
  H213     1.0000 0.71313  0.85924  0.79321  Biso   1.000  H
  H214     1.0000 0.75521  0.83303  0.74613  Biso   1.000  H
  H215     1.0000 0.74482  0.83303  0.75393  Biso   1.000  H
  H216     1.0000 0.78693  0.85924  0.70682  Biso   1.000  H
  C145     1.0000 0.63141  0.76259  0.75983  Biso   1.000  C
  C146     1.0000 0.59311  0.78481  0.71106  Biso   1.000  C
  C147     1.0000 0.59311  0.71521  0.78896  Biso   1.000  C
  H217     1.0000 0.66703  0.75393  0.75521  Biso   1.000  H
  H218     1.0000 0.66703  0.74613  0.74482  Biso   1.000  H
  H219     1.0000 0.64082  0.79321  0.78693  Biso   1.000  H
  C148     1.0000 0.53450  0.78006  0.73824  Biso   1.000  C
  C149     1.0000 0.63141  0.73744  0.74023  Biso   1.000  C
  H220     1.0000 0.60333  0.82391  0.69952  Biso   1.000  H
  H221     1.0000 0.59540  0.76203  0.67590  Biso   1.000  H
  H222     1.0000 0.60931  0.82302  0.71771  Biso   1.000  H
  H223     1.0000 0.59070  0.77832  0.66962  Biso   1.000  H
  C150     1.0000 0.53450  0.71996  0.76178  Biso   1.000  C
  H224     1.0000 0.60333  0.67611  0.80050  Biso   1.000  H
  H225     1.0000 0.59540  0.73803  0.82412  Biso   1.000  H
  H226     1.0000 0.60931  0.67700  0.78231  Biso   1.000  H
  H227     1.0000 0.59070  0.72170  0.83040  Biso   1.000  H
  N25      1.0000 0.48802  0.78930  0.69914  Biso   1.000  N
  H228     1.0000 0.53162  0.80771  0.77030  Biso   1.000  H
  H229     1.0000 0.64082  0.70682  0.71313  Biso   1.000  H
  N26      1.0000 0.48802  0.71076  0.80088  Biso   1.000  N
  H230     1.0000 0.53162  0.69231  0.72972  Biso   1.000  H
  C151     1.0000 0.45256  0.82756  0.71237  Biso   1.000  C
  C152     1.0000 0.45256  0.67246  0.78765  Biso   1.000  C
  C153     1.0000 0.40248  0.84088  0.67785  Biso   1.000  C
  H231     1.0000 0.45871  0.84864  0.74621  Biso   1.000  H
  H232     1.0000 0.45871  0.65143  0.75381  Biso   1.000  H
  C154     1.0000 0.40248  0.65915  0.82217  Biso   1.000  C
  C155     1.0000 0.38763  0.80818  0.63065  Biso   1.000  C
  C156     1.0000 0.36940  0.88761  0.69184  Biso   1.000  C
  C157     1.0000 0.36940  0.61241  0.80818  Biso   1.000  C
  C158     1.0000 0.38763  0.69184  0.86938  Biso   1.000  C
  C159     1.0000 0.34085  0.82217  0.59752  Biso   1.000  C
  H233     1.0000 0.40981  0.77590  0.62102  Biso   1.000  H
  C160     1.0000 0.32215  0.90250  0.65915  Biso   1.000  C
  H234     1.0000 0.37902  0.90984  0.72412  Biso   1.000  H
  C161     1.0000 0.32215  0.59752  0.84088  Biso   1.000  C
  H235     1.0000 0.37902  0.59023  0.77590  Biso   1.000  H
  C162     1.0000 0.34085  0.67785  0.90250  Biso   1.000  C
  H236     1.0000 0.40981  0.72412  0.87900  Biso   1.000  H
  C163     1.0000 0.32754  0.78765  0.54744  Biso   1.000  C
  C164     1.0000 0.30816  0.86938  0.61241  Biso   1.000  C
  C165     1.0000 0.28763  0.95258  0.67246  Biso   1.000  C
  C166     1.0000 0.28763  0.54744  0.82756  Biso   1.000  C
  C167     1.0000 0.30816  0.63065  0.88761  Biso   1.000  C
  C168     1.0000 0.32754  0.71237  0.95258  Biso   1.000  C
  N27      1.0000 0.28928  0.80088  0.51202  Biso   1.000  N
  H237     1.0000 0.34862  0.75381  0.54133  Biso   1.000  H
  H238     1.0000 0.27592  0.87900  0.59023  Biso   1.000  H
  N28      1.0000 0.30086  0.98800  0.71076  Biso   1.000  N
  H239     1.0000 0.25379  0.95873  0.65143  Biso   1.000  H
  N29      1.0000 0.30086  0.51202  0.78930  Biso   1.000  N
  H240     1.0000 0.25379  0.54133  0.84864  Biso   1.000  H
  H241     1.0000 0.27592  0.62102  0.90984  Biso   1.000  H
  N30      1.0000 0.28928  0.69914  0.98800  Biso   1.000  N
  H242     1.0000 0.34862  0.74621  0.95873  Biso   1.000  H
  C169     1.0000 0.28008  0.76178  0.46554  Biso   1.000  C
  C170     1.0000 0.26176  0.03448  0.71996  Biso   1.000  C
  C171     1.0000 0.26176  0.46554  0.78006  Biso   1.000  C
  C172     1.0000 0.28008  0.73824  0.03448  Biso   1.000  C
  C173     1.0000 0.21994  0.73824  0.46554  Biso   1.000  C
  C174     1.0000 0.28483  0.78896  0.40689  Biso   1.000  C
  H243     1.0000 0.30769  0.72972  0.46843  Biso   1.000  H
  C175     1.0000 0.23826  0.03448  0.78006  Biso   1.000  C
  H244     1.0000 0.22970  0.03164  0.69231  Biso   1.000  H
  C176     1.0000 0.28899  0.09313  0.71521  Biso   1.000  C
  C177     1.0000 0.23826  0.46554  0.71996  Biso   1.000  C
  H245     1.0000 0.22970  0.46843  0.80771  Biso   1.000  H
  C178     1.0000 0.28899  0.40689  0.78481  Biso   1.000  C
  C179     1.0000 0.21994  0.76178  0.03448  Biso   1.000  C
  H246     1.0000 0.30769  0.77030  0.03164  Biso   1.000  H
  C180     1.0000 0.28483  0.71106  0.09313  Biso   1.000  C
  C181     1.0000 0.21519  0.71106  0.40689  Biso   1.000  C
  N31      1.0000 0.21074  0.69914  0.51202  Biso   1.000  N
  H247     1.0000 0.19229  0.77030  0.46843  Biso   1.000  H
  C182     1.0000 0.26256  0.74023  0.36863  Biso   1.000  C
  C183     1.0000 0.23746  0.75983  0.36863  Biso   1.000  C
  H248     1.0000 0.32389  0.80050  0.39671  Biso   1.000  H
  H249     1.0000 0.26201  0.82412  0.40460  Biso   1.000  H
  H250     1.0000 0.32300  0.78231  0.39073  Biso   1.000  H
  H251     1.0000 0.27830  0.83040  0.40930  Biso   1.000  H
  N32      1.0000 0.19912  0.98800  0.78930  Biso   1.000  N
  H252     1.0000 0.27033  0.03164  0.80771  Biso   1.000  H
  C184     1.0000 0.21104  0.09313  0.78481  Biso   1.000  C
  H253     1.0000 0.30052  0.10327  0.67611  Biso   1.000  H
  H254     1.0000 0.32410  0.09538  0.73803  Biso   1.000  H
  C185     1.0000 0.25981  0.13139  0.76259  Biso   1.000  C
  C186     1.0000 0.24021  0.13139  0.73744  Biso   1.000  C
  H255     1.0000 0.28229  0.10929  0.67700  Biso   1.000  H
  H256     1.0000 0.33042  0.09072  0.72170  Biso   1.000  H
  N33      1.0000 0.19912  0.51202  0.71076  Biso   1.000  N
  H257     1.0000 0.27033  0.46843  0.69231  Biso   1.000  H
  C187     1.0000 0.21104  0.40689  0.71521  Biso   1.000  C
  C188     1.0000 0.25981  0.36863  0.73744  Biso   1.000  C
  C189     1.0000 0.24021  0.36863  0.76259  Biso   1.000  C
  H258     1.0000 0.30052  0.39671  0.82391  Biso   1.000  H
  H259     1.0000 0.32410  0.40460  0.76203  Biso   1.000  H
  H260     1.0000 0.28229  0.39073  0.82302  Biso   1.000  H
  H261     1.0000 0.33042  0.40930  0.77832  Biso   1.000  H
  N34      1.0000 0.21074  0.80088  0.98800  Biso   1.000  N
  H262     1.0000 0.19229  0.72972  0.03164  Biso   1.000  H
  C190     1.0000 0.21519  0.78896  0.09313  Biso   1.000  C
  H263     1.0000 0.32389  0.69952  0.10327  Biso   1.000  H
  H264     1.0000 0.26201  0.67590  0.09538  Biso   1.000  H
  C191     1.0000 0.26256  0.75983  0.13139  Biso   1.000  C
  C192     1.0000 0.23746  0.74023  0.13139  Biso   1.000  C
  H265     1.0000 0.32300  0.71771  0.10929  Biso   1.000  H
  H266     1.0000 0.27830  0.66962  0.09072  Biso   1.000  H
  H267     1.0000 0.17609  0.69952  0.39671  Biso   1.000  H
  H268     1.0000 0.23801  0.67590  0.40460  Biso   1.000  H
  H269     1.0000 0.17702  0.71771  0.39073  Biso   1.000  H
  H270     1.0000 0.22172  0.66962  0.40930  Biso   1.000  H
  C193     1.0000 0.17248  0.71237  0.54744  Biso   1.000  C
  H271     1.0000 0.29323  0.71313  0.35922  Biso   1.000  H
  H272     1.0000 0.24611  0.75521  0.33301  Biso   1.000  H
  H273     1.0000 0.25391  0.74482  0.33301  Biso   1.000  H
  H274     1.0000 0.20679  0.78693  0.35922  Biso   1.000  H
  C194     1.0000 0.21235  0.95258  0.82756  Biso   1.000  C
  H275     1.0000 0.19950  0.10327  0.82391  Biso   1.000  H
  H276     1.0000 0.17592  0.09538  0.76203  Biso   1.000  H
  H277     1.0000 0.21769  0.10929  0.82302  Biso   1.000  H
  H278     1.0000 0.16960  0.09072  0.77832  Biso   1.000  H
  H279     1.0000 0.28691  0.14080  0.79321  Biso   1.000  H
  H280     1.0000 0.24479  0.16701  0.74613  Biso   1.000  H
  H281     1.0000 0.25518  0.16701  0.75393  Biso   1.000  H
  H282     1.0000 0.21311  0.14080  0.70682  Biso   1.000  H
  C195     1.0000 0.21235  0.54744  0.67246  Biso   1.000  C
  H283     1.0000 0.19950  0.39671  0.67611  Biso   1.000  H
  H284     1.0000 0.17592  0.40460  0.73803  Biso   1.000  H
  H285     1.0000 0.21769  0.39073  0.67700  Biso   1.000  H
  H286     1.0000 0.16960  0.40930  0.72170  Biso   1.000  H
  H287     1.0000 0.28691  0.35922  0.70682  Biso   1.000  H
  H288     1.0000 0.24479  0.33301  0.75393  Biso   1.000  H
  H289     1.0000 0.25518  0.33301  0.74613  Biso   1.000  H
  H290     1.0000 0.21311  0.35922  0.79321  Biso   1.000  H
  C196     1.0000 0.17248  0.78765  0.95258  Biso   1.000  C
  H291     1.0000 0.17609  0.80050  0.10327  Biso   1.000  H
  H292     1.0000 0.23801  0.82412  0.09538  Biso   1.000  H
  H293     1.0000 0.17702  0.78231  0.10929  Biso   1.000  H
  H294     1.0000 0.22172  0.83040  0.09072  Biso   1.000  H
  H295     1.0000 0.29323  0.78693  0.14080  Biso   1.000  H
  H296     1.0000 0.24611  0.74482  0.16701  Biso   1.000  H
  H297     1.0000 0.25391  0.75521  0.16701  Biso   1.000  H
  H298     1.0000 0.20679  0.71313  0.14080  Biso   1.000  H
  H299     1.0000 0.15141  0.74621  0.54133  Biso   1.000  H
  C197     1.0000 0.15917  0.67785  0.59752  Biso   1.000  C
  H300     1.0000 0.24619  0.95873  0.84864  Biso   1.000  H
  C198     1.0000 0.17783  0.90250  0.84088  Biso   1.000  C
  C199     1.0000 0.17783  0.59752  0.65915  Biso   1.000  C
  H301     1.0000 0.24619  0.54133  0.65143  Biso   1.000  H
  C200     1.0000 0.15917  0.82217  0.90250  Biso   1.000  C
  H302     1.0000 0.15141  0.75381  0.95873  Biso   1.000  H
  C201     1.0000 0.19182  0.63065  0.61241  Biso   1.000  C
  C202     1.0000 0.11239  0.69184  0.63065  Biso   1.000  C
  C203     1.0000 0.13062  0.88761  0.80818  Biso   1.000  C
  C204     1.0000 0.19182  0.86938  0.88761  Biso   1.000  C
  C205     1.0000 0.13062  0.61241  0.69184  Biso   1.000  C
  C206     1.0000 0.11239  0.80818  0.86938  Biso   1.000  C
  H303     1.0000 0.22410  0.62102  0.59023  Biso   1.000  H
  C207     1.0000 0.09754  0.65915  0.67785  Biso   1.000  C
  H304     1.0000 0.09021  0.72412  0.62102  Biso   1.000  H
  C208     1.0000 0.09754  0.84088  0.82217  Biso   1.000  C
  H305     1.0000 0.12100  0.90984  0.77590  Biso   1.000  H
  H306     1.0000 0.22410  0.87900  0.90984  Biso   1.000  H
  H307     1.0000 0.12100  0.59023  0.72412  Biso   1.000  H
  H308     1.0000 0.09021  0.77590  0.87900  Biso   1.000  H
  C209     1.0000 0.04742  0.67246  0.71237  Biso   1.000  C
  C210     1.0000 0.04742  0.82756  0.78765  Biso   1.000  C
  N35      1.0000 0.01200  0.71076  0.69914  Biso   1.000  N
  H309     1.0000 0.04131  0.65143  0.74621  Biso   1.000  H
  N36      1.0000 0.01200  0.78930  0.80088  Biso   1.000  N
  H310     1.0000 0.04131  0.84864  0.75381  Biso   1.000  H
  C211     1.0000 0.96556  0.71996  0.73824  Biso   1.000  C
  C212     1.0000 0.96556  0.78006  0.76178  Biso   1.000  C
  H311     1.0000 0.96840  0.69231  0.77030  Biso   1.000  H
  C213     1.0000 0.90691  0.71521  0.71106  Biso   1.000  C
  H312     1.0000 0.96840  0.80771  0.72972  Biso   1.000  H
  C214     1.0000 0.90691  0.78481  0.78896  Biso   1.000  C
  H313     1.0000 0.89673  0.67611  0.69952  Biso   1.000  H
  H314     1.0000 0.90466  0.73803  0.67590  Biso   1.000  H
  C215     1.0000 0.86865  0.76259  0.74023  Biso   1.000  C
  C216     1.0000 0.86865  0.73744  0.75983  Biso   1.000  C
  H315     1.0000 0.89071  0.67700  0.71771  Biso   1.000  H
  H316     1.0000 0.90933  0.72170  0.66962  Biso   1.000  H
  H317     1.0000 0.89673  0.82391  0.80050  Biso   1.000  H
  H318     1.0000 0.90466  0.76203  0.82412  Biso   1.000  H
  H319     1.0000 0.89071  0.82302  0.78231  Biso   1.000  H
  H320     1.0000 0.90933  0.77832  0.83040  Biso   1.000  H
  H321     1.0000 0.83303  0.75393  0.74482  Biso   1.000  H
  H322     1.0000 0.85924  0.79321  0.71313  Biso   1.000  H
  H323     1.0000 0.83303  0.74613  0.75521  Biso   1.000  H
  H324     1.0000 0.85924  0.70682  0.78693  Biso   1.000  H
  C217     1.0000 0.94516  0.61741  0.86611  Biso   1.000  C
  C218     1.0000 0.94516  0.61741  0.86607  Biso   1.000  C
  C219     1.0000 0.96268  0.70147  0.92578  Biso   1.000  C
  C220     1.0000 0.88265  0.63395  0.94516  Biso   1.000  C
  C221     1.0000 0.96264  0.70147  0.92578  Biso   1.000  C
  C222     1.0000 0.88261  0.63395  0.94516  Biso   1.000  C
  C223     1.0000 0.91280  0.56987  0.85033  Biso   1.000  C
  C224     1.0000 0.91280  0.56987  0.85029  Biso   1.000  C
  C225     1.0000 0.91276  0.56987  0.85033  Biso   1.000  C
  C226     1.0000 0.91276  0.56987  0.85029  Biso   1.000  C
  H325     1.0000 0.97765  0.62751  0.84452  Biso   1.000  H
  H326     1.0000 0.97761  0.62751  0.84452  Biso   1.000  H
  C227     1.0000 0.93015  0.64973  0.91280  Biso   1.000  C
  C228     1.0000 0.93015  0.64973  0.91276  Biso   1.000  C
  N37      1.0000 0.94932  0.73544  0.96535  Biso   1.000  N
  H327     1.0000 0.99512  0.70983  0.90356  Biso   1.000  H
  N38      1.0000 0.94932  0.73544  0.96531  Biso   1.000  N
  H328     1.0000 0.99512  0.70983  0.90352  Biso   1.000  H
  N39      1.0000 0.94936  0.73544  0.96535  Biso   1.000  N
  N40      1.0000 0.94936  0.73544  0.96531  Biso   1.000  N
  C229     1.0000 0.85033  0.58726  0.93015  Biso   1.000  C
  C230     1.0000 0.85029  0.58726  0.93015  Biso   1.000  C
  H329     1.0000 0.87256  0.65550  0.97765  Biso   1.000  H
  H330     1.0000 0.87256  0.65550  0.97761  Biso   1.000  H
  H331     1.0000 0.87251  0.65550  0.97765  Biso   1.000  H
  H332     1.0000 0.87251  0.65550  0.97761  Biso   1.000  H
  C231     1.0000 0.92578  0.53738  0.79855  Biso   1.000  C
  C232     1.0000 0.86611  0.55486  0.88265  Biso   1.000  C
  C233     1.0000 0.86611  0.55486  0.88261  Biso   1.000  C
  C234     1.0000 0.86607  0.55486  0.88265  Biso   1.000  C
  C235     1.0000 0.86607  0.55486  0.88261  Biso   1.000  C
  C236     1.0000 0.98533  0.78528  0.97150  Biso   1.000  C
  C237     1.0000 0.98533  0.78528  0.97154  Biso   1.000  C
  C238     1.0000 0.98528  0.78528  0.97150  Biso   1.000  C
  C239     1.0000 0.98528  0.78528  0.97154  Biso   1.000  C
  C240     1.0000 0.79855  0.57424  0.96268  Biso   1.000  C
  C241     1.0000 0.79855  0.57424  0.96264  Biso   1.000  C
  N41      1.0000 0.96535  0.55066  0.76462  Biso   1.000  N
  H333     1.0000 0.90356  0.50490  0.79024  Biso   1.000  H
  N42      1.0000 0.96531  0.55066  0.76462  Biso   1.000  N
  H334     1.0000 0.90352  0.50490  0.79024  Biso   1.000  H
  H335     1.0000 0.84452  0.52241  0.87256  Biso   1.000  H
  H336     1.0000 0.84452  0.52241  0.87251  Biso   1.000  H
  H337     1.0000 0.96192  0.81992  0.96794  Biso   1.000  H
  H338     1.0000 0.01400  0.78570  0.94092  Biso   1.000  H
  H339     1.0000 0.01404  0.78570  0.94092  Biso   1.000  H
  C242     1.0000 0.01472  0.78528  0.02850  Biso   1.000  C
  C243     1.0000 0.01472  0.78528  0.02846  Biso   1.000  C
  H340     1.0000 0.79024  0.59651  0.99512  Biso   1.000  H
  N43      1.0000 0.76462  0.53471  0.94932  Biso   1.000  N
  N44      1.0000 0.76462  0.53471  0.94936  Biso   1.000  N
  C244     1.0000 0.97150  0.51474  0.71475  Biso   1.000  C
  C245     1.0000 0.97154  0.51474  0.71475  Biso   1.000  C
  H341     1.0000 0.98605  0.78570  0.05908  Biso   1.000  H
  H342     1.0000 0.98600  0.78570  0.05908  Biso   1.000  H
  N45      1.0000 0.05068  0.73544  0.03469  Biso   1.000  N
  N46      1.0000 0.05068  0.73544  0.03473  Biso   1.000  N
  H343     1.0000 0.03808  0.81992  0.03206  Biso   1.000  H
  H344     1.0000 0.03813  0.81992  0.03206  Biso   1.000  H
  C246     1.0000 0.71475  0.52848  0.98533  Biso   1.000  C
  C247     1.0000 0.71475  0.52848  0.98528  Biso   1.000  C
  H345     1.0000 0.94092  0.48603  0.71432  Biso   1.000  H
  H346     1.0000 0.96794  0.53811  0.68010  Biso   1.000  H
  C248     1.0000 0.02850  0.48530  0.71475  Biso   1.000  C
  C249     1.0000 0.02846  0.48530  0.71475  Biso   1.000  C
  C250     1.0000 0.03736  0.70147  0.07422  Biso   1.000  C
  H347     1.0000 0.68010  0.53213  0.96192  Biso   1.000  H
  H348     1.0000 0.71432  0.55910  0.01400  Biso   1.000  H
  H349     1.0000 0.71432  0.55910  0.01404  Biso   1.000  H
  C251     1.0000 0.71475  0.47152  0.01472  Biso   1.000  C
  N47      1.0000 0.03469  0.44934  0.76462  Biso   1.000  N
  N48      1.0000 0.03473  0.44934  0.76462  Biso   1.000  N
  H350     1.0000 0.05908  0.51402  0.71432  Biso   1.000  H
  H351     1.0000 0.03206  0.46189  0.68010  Biso   1.000  H
  H352     1.0000 0.00492  0.70983  0.09648  Biso   1.000  H
  C252     1.0000 0.06989  0.64973  0.08724  Biso   1.000  C
  H353     1.0000 0.00492  0.70983  0.09653  Biso   1.000  H
  H354     1.0000 0.71432  0.44090  0.98605  Biso   1.000  H
  H355     1.0000 0.71432  0.44090  0.98600  Biso   1.000  H
  N49      1.0000 0.76462  0.46529  0.05068  Biso   1.000  N
  H356     1.0000 0.68010  0.46792  0.03808  Biso   1.000  H
  H357     1.0000 0.68010  0.46792  0.03813  Biso   1.000  H
  C253     1.0000 0.07422  0.46266  0.79855  Biso   1.000  C
  C254     1.0000 0.11739  0.63395  0.05484  Biso   1.000  C
  C255     1.0000 0.05484  0.61741  0.13393  Biso   1.000  C
  C256     1.0000 0.05484  0.61741  0.13398  Biso   1.000  C
  C257     1.0000 0.79855  0.42576  0.03736  Biso   1.000  C
  H358     1.0000 0.09648  0.49510  0.79024  Biso   1.000  H
  C258     1.0000 0.08724  0.43013  0.85033  Biso   1.000  C
  C259     1.0000 0.08724  0.43013  0.85029  Biso   1.000  C
  H359     1.0000 0.09653  0.49510  0.79024  Biso   1.000  H
  H360     1.0000 0.12749  0.65550  0.02239  Biso   1.000  H
  H361     1.0000 0.12749  0.65550  0.02244  Biso   1.000  H
  C260     1.0000 0.14975  0.58726  0.06989  Biso   1.000  C
  C261     1.0000 0.08724  0.56987  0.14975  Biso   1.000  C
  H362     1.0000 0.02239  0.62751  0.15548  Biso   1.000  H
  H363     1.0000 0.02244  0.62751  0.15548  Biso   1.000  H
  H364     1.0000 0.79024  0.40349  0.00492  Biso   1.000  H
  C262     1.0000 0.85033  0.41278  0.06989  Biso   1.000  C
  C263     1.0000 0.85029  0.41278  0.06989  Biso   1.000  C
  C264     1.0000 0.05484  0.38259  0.86611  Biso   1.000  C
  C265     1.0000 0.13393  0.44514  0.88265  Biso   1.000  C
  C266     1.0000 0.05484  0.38259  0.86607  Biso   1.000  C
  C267     1.0000 0.13393  0.44514  0.88261  Biso   1.000  C
  C268     1.0000 0.13398  0.44514  0.88265  Biso   1.000  C
  C269     1.0000 0.13398  0.44514  0.88261  Biso   1.000  C
  C270     1.0000 0.20145  0.57424  0.03736  Biso   1.000  C
  C271     1.0000 0.13393  0.55486  0.11739  Biso   1.000  C
  C272     1.0000 0.13398  0.55486  0.11739  Biso   1.000  C
  C273     1.0000 0.07422  0.53738  0.20145  Biso   1.000  C
  C274     1.0000 0.88265  0.36605  0.05484  Biso   1.000  C
  C275     1.0000 0.86611  0.44514  0.11739  Biso   1.000  C
  C276     1.0000 0.88261  0.36605  0.05484  Biso   1.000  C
  C277     1.0000 0.86607  0.44514  0.11739  Biso   1.000  C
  C278     1.0000 0.06989  0.35027  0.91280  Biso   1.000  C
  H365     1.0000 0.02239  0.37249  0.84452  Biso   1.000  H
  C279     1.0000 0.06989  0.35027  0.91276  Biso   1.000  C
  H366     1.0000 0.02244  0.37249  0.84452  Biso   1.000  H
  H367     1.0000 0.15548  0.47763  0.87256  Biso   1.000  H
  C280     1.0000 0.14975  0.41278  0.93015  Biso   1.000  C
  H368     1.0000 0.15548  0.47763  0.87251  Biso   1.000  H
  N50      1.0000 0.23542  0.53471  0.05068  Biso   1.000  N
  H369     1.0000 0.20981  0.59651  0.00492  Biso   1.000  H
  H370     1.0000 0.20976  0.59651  0.00492  Biso   1.000  H
  H371     1.0000 0.15548  0.52241  0.12749  Biso   1.000  H
  N51      1.0000 0.03469  0.55066  0.23542  Biso   1.000  N
  H372     1.0000 0.09648  0.50490  0.20981  Biso   1.000  H
  H373     1.0000 0.09648  0.50490  0.20976  Biso   1.000  H
  N52      1.0000 0.03473  0.55066  0.23542  Biso   1.000  N
  H374     1.0000 0.09653  0.50490  0.20981  Biso   1.000  H
  H375     1.0000 0.09653  0.50490  0.20976  Biso   1.000  H
  H376     1.0000 0.87256  0.34450  0.02239  Biso   1.000  H
  H377     1.0000 0.87256  0.34450  0.02244  Biso   1.000  H
  C281     1.0000 0.93015  0.35027  0.08724  Biso   1.000  C
  H378     1.0000 0.87251  0.34450  0.02239  Biso   1.000  H
  H379     1.0000 0.87251  0.34450  0.02244  Biso   1.000  H
  H380     1.0000 0.84452  0.47763  0.12749  Biso   1.000  H
  C282     1.0000 0.91280  0.43013  0.14975  Biso   1.000  C
  C283     1.0000 0.91276  0.43013  0.14975  Biso   1.000  C
  C284     1.0000 0.03736  0.29853  0.92578  Biso   1.000  C
  C285     1.0000 0.11739  0.36605  0.94516  Biso   1.000  C
  C286     1.0000 0.20145  0.42576  0.96268  Biso   1.000  C
  C287     1.0000 0.20145  0.42576  0.96264  Biso   1.000  C
  C288     1.0000 0.28525  0.52848  0.01472  Biso   1.000  C
  C289     1.0000 0.28530  0.52848  0.01472  Biso   1.000  C
  C290     1.0000 0.02850  0.51474  0.28525  Biso   1.000  C
  C291     1.0000 0.02850  0.51474  0.28530  Biso   1.000  C
  C292     1.0000 0.02846  0.51474  0.28525  Biso   1.000  C
  C293     1.0000 0.02846  0.51474  0.28530  Biso   1.000  C
  C294     1.0000 0.96268  0.29853  0.07422  Biso   1.000  C
  C295     1.0000 0.96264  0.29853  0.07422  Biso   1.000  C
  C296     1.0000 0.94516  0.38259  0.13393  Biso   1.000  C
  C297     1.0000 0.94516  0.38259  0.13398  Biso   1.000  C
  C298     1.0000 0.92578  0.46266  0.20145  Biso   1.000  C
  N53      1.0000 0.05068  0.26460  0.96535  Biso   1.000  N
  H381     1.0000 0.00492  0.29022  0.90356  Biso   1.000  H
  N54      1.0000 0.05068  0.26460  0.96531  Biso   1.000  N
  H382     1.0000 0.00492  0.29022  0.90352  Biso   1.000  H
  H383     1.0000 0.12749  0.34450  0.97765  Biso   1.000  H
  H384     1.0000 0.12749  0.34450  0.97761  Biso   1.000  H
  N55      1.0000 0.23542  0.46529  0.94932  Biso   1.000  N
  H385     1.0000 0.20981  0.40349  0.99512  Biso   1.000  H
  N56      1.0000 0.23542  0.46529  0.94936  Biso   1.000  N
  H386     1.0000 0.20976  0.40349  0.99512  Biso   1.000  H
  C299     1.0000 0.28525  0.47152  0.98533  Biso   1.000  C
  C300     1.0000 0.28525  0.47152  0.98528  Biso   1.000  C
  C301     1.0000 0.28530  0.47152  0.98533  Biso   1.000  C
  C302     1.0000 0.28530  0.47152  0.98528  Biso   1.000  C
  H387     1.0000 0.28572  0.55910  0.98605  Biso   1.000  H
  H388     1.0000 0.28572  0.55910  0.98600  Biso   1.000  H
  H389     1.0000 0.31990  0.53213  0.03808  Biso   1.000  H
  H390     1.0000 0.31990  0.53213  0.03813  Biso   1.000  H
  C303     1.0000 0.97150  0.48530  0.28525  Biso   1.000  C
  C304     1.0000 0.97150  0.48530  0.28530  Biso   1.000  C
  C305     1.0000 0.97154  0.48530  0.28525  Biso   1.000  C
  C306     1.0000 0.97154  0.48530  0.28530  Biso   1.000  C
  H391     1.0000 0.03206  0.53811  0.31990  Biso   1.000  H
  H392     1.0000 0.05908  0.48603  0.28572  Biso   1.000  H
  N57      1.0000 0.94932  0.26460  0.03469  Biso   1.000  N
  N58      1.0000 0.94932  0.26460  0.03473  Biso   1.000  N
  N59      1.0000 0.94936  0.26460  0.03469  Biso   1.000  N
  N60      1.0000 0.94936  0.26460  0.03473  Biso   1.000  N
  H393     1.0000 0.99512  0.29022  0.09648  Biso   1.000  H
  H394     1.0000 0.99512  0.29022  0.09653  Biso   1.000  H
  H395     1.0000 0.97765  0.37249  0.15548  Biso   1.000  H
  H396     1.0000 0.97761  0.37249  0.15548  Biso   1.000  H
  N61      1.0000 0.96535  0.44934  0.23542  Biso   1.000  N
  H397     1.0000 0.90356  0.49510  0.20981  Biso   1.000  H
  H398     1.0000 0.90356  0.49510  0.20976  Biso   1.000  H
  N62      1.0000 0.96531  0.44934  0.23542  Biso   1.000  N
  H399     1.0000 0.90352  0.49510  0.20981  Biso   1.000  H
  H400     1.0000 0.90352  0.49510  0.20976  Biso   1.000  H
  C307     1.0000 0.01472  0.21477  0.97150  Biso   1.000  C
  C308     1.0000 0.01472  0.21477  0.97154  Biso   1.000  C
  H401     1.0000 0.31990  0.46792  0.96192  Biso   1.000  H
  H402     1.0000 0.28572  0.44090  0.01400  Biso   1.000  H
  H403     1.0000 0.28572  0.44090  0.01404  Biso   1.000  H
  H404     1.0000 0.96794  0.46189  0.31990  Biso   1.000  H
  H405     1.0000 0.94092  0.51402  0.28572  Biso   1.000  H
  C309     1.0000 0.98533  0.21477  0.02850  Biso   1.000  C
  C310     1.0000 0.98533  0.21477  0.02846  Biso   1.000  C
  C311     1.0000 0.98528  0.21477  0.02850  Biso   1.000  C
  C312     1.0000 0.98528  0.21477  0.02846  Biso   1.000  C
  H406     1.0000 0.98605  0.21430  0.94092  Biso   1.000  H
  H407     1.0000 0.98600  0.21430  0.94092  Biso   1.000  H
  H408     1.0000 0.03808  0.18012  0.96794  Biso   1.000  H
  H409     1.0000 0.03813  0.18012  0.96794  Biso   1.000  H
  H410     1.0000 0.96192  0.18012  0.03206  Biso   1.000  H
  H411     1.0000 0.01400  0.21430  0.05908  Biso   1.000  H
  H412     1.0000 0.01404  0.21430  0.05908  Biso   1.000  H
  C313     1.0000 0.86611  0.94516  0.61741  Biso   1.000  C
  C314     1.0000 0.86607  0.94516  0.61741  Biso   1.000  C
  C315     1.0000 0.92578  0.96268  0.70147  Biso   1.000  C
  C316     1.0000 0.92578  0.96264  0.70147  Biso   1.000  C
  C317     1.0000 0.94516  0.88265  0.63395  Biso   1.000  C
  C318     1.0000 0.94516  0.88261  0.63395  Biso   1.000  C
  C319     1.0000 0.85033  0.91280  0.56987  Biso   1.000  C
  C320     1.0000 0.85033  0.91276  0.56987  Biso   1.000  C
  C321     1.0000 0.85029  0.91280  0.56987  Biso   1.000  C
  C322     1.0000 0.85029  0.91276  0.56987  Biso   1.000  C
  H413     1.0000 0.84452  0.97765  0.62751  Biso   1.000  H
  H414     1.0000 0.84452  0.97761  0.62751  Biso   1.000  H
  C323     1.0000 0.91280  0.93015  0.64973  Biso   1.000  C
  C324     1.0000 0.91276  0.93015  0.64973  Biso   1.000  C
  N63      1.0000 0.96535  0.94932  0.73544  Biso   1.000  N
  H415     1.0000 0.90356  0.99512  0.70983  Biso   1.000  H
  N64      1.0000 0.96535  0.94936  0.73544  Biso   1.000  N
  N65      1.0000 0.96531  0.94932  0.73544  Biso   1.000  N
  H416     1.0000 0.90352  0.99512  0.70983  Biso   1.000  H
  N66      1.0000 0.96531  0.94936  0.73544  Biso   1.000  N
  C325     1.0000 0.93015  0.85033  0.58726  Biso   1.000  C
  C326     1.0000 0.93015  0.85029  0.58726  Biso   1.000  C
  H417     1.0000 0.97765  0.87256  0.65550  Biso   1.000  H
  H418     1.0000 0.97765  0.87251  0.65550  Biso   1.000  H
  H419     1.0000 0.97761  0.87256  0.65550  Biso   1.000  H
  H420     1.0000 0.97761  0.87251  0.65550  Biso   1.000  H
  C327     1.0000 0.79855  0.92578  0.53738  Biso   1.000  C
  C328     1.0000 0.88265  0.86611  0.55486  Biso   1.000  C
  C329     1.0000 0.88265  0.86607  0.55486  Biso   1.000  C
  C330     1.0000 0.88261  0.86611  0.55486  Biso   1.000  C
  C331     1.0000 0.88261  0.86607  0.55486  Biso   1.000  C
  C332     1.0000 0.97150  0.98533  0.78528  Biso   1.000  C
  C333     1.0000 0.97150  0.98528  0.78528  Biso   1.000  C
  C334     1.0000 0.97154  0.98533  0.78528  Biso   1.000  C
  C335     1.0000 0.97154  0.98528  0.78528  Biso   1.000  C
  C336     1.0000 0.96268  0.79855  0.57424  Biso   1.000  C
  C337     1.0000 0.96264  0.79855  0.57424  Biso   1.000  C
  N67      1.0000 0.76462  0.96535  0.55066  Biso   1.000  N
  H421     1.0000 0.79024  0.90356  0.50490  Biso   1.000  H
  N68      1.0000 0.76462  0.96531  0.55066  Biso   1.000  N
  H422     1.0000 0.79024  0.90352  0.50490  Biso   1.000  H
  H423     1.0000 0.87256  0.84452  0.52241  Biso   1.000  H
  H424     1.0000 0.87251  0.84452  0.52241  Biso   1.000  H
  H425     1.0000 0.96794  0.96192  0.81992  Biso   1.000  H
  H426     1.0000 0.94092  0.01400  0.78570  Biso   1.000  H
  H427     1.0000 0.94092  0.01404  0.78570  Biso   1.000  H
  C338     1.0000 0.02850  0.01472  0.78528  Biso   1.000  C
  C339     1.0000 0.02846  0.01472  0.78528  Biso   1.000  C
  H428     1.0000 0.99512  0.79024  0.59651  Biso   1.000  H
  N69      1.0000 0.94932  0.76462  0.53471  Biso   1.000  N
  N70      1.0000 0.94936  0.76462  0.53471  Biso   1.000  N
  C340     1.0000 0.71475  0.97150  0.51474  Biso   1.000  C
  C341     1.0000 0.71475  0.97154  0.51474  Biso   1.000  C
  H429     1.0000 0.05908  0.98605  0.78570  Biso   1.000  H
  H430     1.0000 0.05908  0.98600  0.78570  Biso   1.000  H
  N71      1.0000 0.03469  0.05068  0.73544  Biso   1.000  N
  N72      1.0000 0.03473  0.05068  0.73544  Biso   1.000  N
  H431     1.0000 0.03206  0.03808  0.81992  Biso   1.000  H
  H432     1.0000 0.03206  0.03813  0.81992  Biso   1.000  H
  C342     1.0000 0.98533  0.71475  0.52848  Biso   1.000  C
  C343     1.0000 0.98528  0.71475  0.52848  Biso   1.000  C
  H433     1.0000 0.71432  0.94092  0.48603  Biso   1.000  H
  H434     1.0000 0.68010  0.96794  0.53811  Biso   1.000  H
  C344     1.0000 0.71475  0.02850  0.48530  Biso   1.000  C
  C345     1.0000 0.71475  0.02846  0.48530  Biso   1.000  C
  C346     1.0000 0.07422  0.03736  0.70147  Biso   1.000  C
  H435     1.0000 0.96192  0.68010  0.53213  Biso   1.000  H
  H436     1.0000 0.01400  0.71432  0.55910  Biso   1.000  H
  C347     1.0000 0.01472  0.71475  0.47152  Biso   1.000  C
  H437     1.0000 0.01404  0.71432  0.55910  Biso   1.000  H
  N73      1.0000 0.76462  0.03469  0.44934  Biso   1.000  N
  N74      1.0000 0.76462  0.03473  0.44934  Biso   1.000  N
  H438     1.0000 0.71432  0.05908  0.51402  Biso   1.000  H
  H439     1.0000 0.68010  0.03206  0.46189  Biso   1.000  H
  H440     1.0000 0.09648  0.00492  0.70983  Biso   1.000  H
  C348     1.0000 0.08724  0.06989  0.64973  Biso   1.000  C
  H441     1.0000 0.09653  0.00492  0.70983  Biso   1.000  H
  H442     1.0000 0.98605  0.71432  0.44090  Biso   1.000  H
  H443     1.0000 0.98600  0.71432  0.44090  Biso   1.000  H
  N75      1.0000 0.05068  0.76462  0.46529  Biso   1.000  N
  H444     1.0000 0.03808  0.68010  0.46792  Biso   1.000  H
  H445     1.0000 0.03813  0.68010  0.46792  Biso   1.000  H
  C349     1.0000 0.79855  0.07422  0.46266  Biso   1.000  C
  C350     1.0000 0.05484  0.11739  0.63395  Biso   1.000  C
  C351     1.0000 0.13393  0.05484  0.61741  Biso   1.000  C
  C352     1.0000 0.13398  0.05484  0.61741  Biso   1.000  C
  C353     1.0000 0.03736  0.79855  0.42576  Biso   1.000  C
  H446     1.0000 0.79024  0.09648  0.49510  Biso   1.000  H
  C354     1.0000 0.85033  0.08724  0.43013  Biso   1.000  C
  H447     1.0000 0.79024  0.09653  0.49510  Biso   1.000  H
  C355     1.0000 0.85029  0.08724  0.43013  Biso   1.000  C
  H448     1.0000 0.02239  0.12749  0.65550  Biso   1.000  H
  C356     1.0000 0.06989  0.14975  0.58726  Biso   1.000  C
  H449     1.0000 0.02244  0.12749  0.65550  Biso   1.000  H
  C357     1.0000 0.14975  0.08724  0.56987  Biso   1.000  C
  H450     1.0000 0.15548  0.02239  0.62751  Biso   1.000  H
  H451     1.0000 0.15548  0.02244  0.62751  Biso   1.000  H
  H452     1.0000 0.00492  0.79024  0.40349  Biso   1.000  H
  C358     1.0000 0.06989  0.85033  0.41278  Biso   1.000  C
  C359     1.0000 0.06989  0.85029  0.41278  Biso   1.000  C
  C360     1.0000 0.86611  0.05484  0.38259  Biso   1.000  C
  C361     1.0000 0.88265  0.13393  0.44514  Biso   1.000  C
  C362     1.0000 0.88265  0.13398  0.44514  Biso   1.000  C
  C363     1.0000 0.86607  0.05484  0.38259  Biso   1.000  C
  C364     1.0000 0.88261  0.13393  0.44514  Biso   1.000  C
  C365     1.0000 0.88261  0.13398  0.44514  Biso   1.000  C
  C366     1.0000 0.03736  0.20145  0.57424  Biso   1.000  C
  C367     1.0000 0.11739  0.13393  0.55486  Biso   1.000  C
  C368     1.0000 0.11739  0.13398  0.55486  Biso   1.000  C
  C369     1.0000 0.20145  0.07422  0.53738  Biso   1.000  C
  C370     1.0000 0.05484  0.88265  0.36605  Biso   1.000  C
  C371     1.0000 0.11739  0.86611  0.44514  Biso   1.000  C
  C372     1.0000 0.05484  0.88261  0.36605  Biso   1.000  C
  C373     1.0000 0.11739  0.86607  0.44514  Biso   1.000  C
  C374     1.0000 0.91280  0.06989  0.35027  Biso   1.000  C
  H453     1.0000 0.84452  0.02239  0.37249  Biso   1.000  H
  H454     1.0000 0.84452  0.02244  0.37249  Biso   1.000  H
  C375     1.0000 0.91276  0.06989  0.35027  Biso   1.000  C
  H455     1.0000 0.87256  0.15548  0.47763  Biso   1.000  H
  C376     1.0000 0.93015  0.14975  0.41278  Biso   1.000  C
  H456     1.0000 0.87251  0.15548  0.47763  Biso   1.000  H
  N76      1.0000 0.05068  0.23542  0.53471  Biso   1.000  N
  H457     1.0000 0.00492  0.20981  0.59651  Biso   1.000  H
  H458     1.0000 0.00492  0.20976  0.59651  Biso   1.000  H
  H459     1.0000 0.12749  0.15548  0.52241  Biso   1.000  H
  N77      1.0000 0.23542  0.03469  0.55066  Biso   1.000  N
  H460     1.0000 0.20981  0.09648  0.50490  Biso   1.000  H
  N78      1.0000 0.23542  0.03473  0.55066  Biso   1.000  N
  H461     1.0000 0.20981  0.09653  0.50490  Biso   1.000  H
  H462     1.0000 0.20976  0.09648  0.50490  Biso   1.000  H
  H463     1.0000 0.20976  0.09653  0.50490  Biso   1.000  H
  H464     1.0000 0.02239  0.87256  0.34450  Biso   1.000  H
  C377     1.0000 0.08724  0.93015  0.35027  Biso   1.000  C
  H465     1.0000 0.02239  0.87251  0.34450  Biso   1.000  H
  H466     1.0000 0.02244  0.87256  0.34450  Biso   1.000  H
  H467     1.0000 0.02244  0.87251  0.34450  Biso   1.000  H
  H468     1.0000 0.12749  0.84452  0.47763  Biso   1.000  H
  C378     1.0000 0.14975  0.91280  0.43013  Biso   1.000  C
  C379     1.0000 0.14975  0.91276  0.43013  Biso   1.000  C
  C380     1.0000 0.92578  0.03736  0.29853  Biso   1.000  C
  C381     1.0000 0.94516  0.11739  0.36605  Biso   1.000  C
  C382     1.0000 0.96268  0.20145  0.42576  Biso   1.000  C
  C383     1.0000 0.96264  0.20145  0.42576  Biso   1.000  C
  C384     1.0000 0.01472  0.28525  0.52848  Biso   1.000  C
  C385     1.0000 0.01472  0.28530  0.52848  Biso   1.000  C
  C386     1.0000 0.28525  0.02850  0.51474  Biso   1.000  C
  C387     1.0000 0.28525  0.02846  0.51474  Biso   1.000  C
  C388     1.0000 0.28530  0.02850  0.51474  Biso   1.000  C
  C389     1.0000 0.28530  0.02846  0.51474  Biso   1.000  C
  C390     1.0000 0.07422  0.96268  0.29853  Biso   1.000  C
  C391     1.0000 0.07422  0.96264  0.29853  Biso   1.000  C
  C392     1.0000 0.13393  0.94516  0.38259  Biso   1.000  C
  C393     1.0000 0.13398  0.94516  0.38259  Biso   1.000  C
  C394     1.0000 0.20145  0.92578  0.46266  Biso   1.000  C
  N79      1.0000 0.96535  0.05068  0.26460  Biso   1.000  N
  H469     1.0000 0.90356  0.00492  0.29022  Biso   1.000  H
  N80      1.0000 0.96531  0.05068  0.26460  Biso   1.000  N
  H470     1.0000 0.90352  0.00492  0.29022  Biso   1.000  H
  H471     1.0000 0.97765  0.12749  0.34450  Biso   1.000  H
  H472     1.0000 0.97761  0.12749  0.34450  Biso   1.000  H
  N81      1.0000 0.94932  0.23542  0.46529  Biso   1.000  N
  H473     1.0000 0.99512  0.20981  0.40349  Biso   1.000  H
  H474     1.0000 0.99512  0.20976  0.40349  Biso   1.000  H
  N82      1.0000 0.94936  0.23542  0.46529  Biso   1.000  N
  C395     1.0000 0.98533  0.28525  0.47152  Biso   1.000  C
  C396     1.0000 0.98533  0.28530  0.47152  Biso   1.000  C
  C397     1.0000 0.98528  0.28525  0.47152  Biso   1.000  C
  C398     1.0000 0.98528  0.28530  0.47152  Biso   1.000  C
  H475     1.0000 0.98605  0.28572  0.55910  Biso   1.000  H
  H476     1.0000 0.98600  0.28572  0.55910  Biso   1.000  H
  H477     1.0000 0.03808  0.31990  0.53213  Biso   1.000  H
  H478     1.0000 0.03813  0.31990  0.53213  Biso   1.000  H
  C399     1.0000 0.28525  0.97150  0.48530  Biso   1.000  C
  C400     1.0000 0.28525  0.97154  0.48530  Biso   1.000  C
  C401     1.0000 0.28530  0.97150  0.48530  Biso   1.000  C
  C402     1.0000 0.28530  0.97154  0.48530  Biso   1.000  C
  H479     1.0000 0.31990  0.03206  0.53811  Biso   1.000  H
  H480     1.0000 0.28572  0.05908  0.48603  Biso   1.000  H
  N83      1.0000 0.03469  0.94932  0.26460  Biso   1.000  N
  N84      1.0000 0.03469  0.94936  0.26460  Biso   1.000  N
  N85      1.0000 0.03473  0.94932  0.26460  Biso   1.000  N
  N86      1.0000 0.03473  0.94936  0.26460  Biso   1.000  N
  H481     1.0000 0.09648  0.99512  0.29022  Biso   1.000  H
  H482     1.0000 0.09653  0.99512  0.29022  Biso   1.000  H
  H483     1.0000 0.15548  0.97765  0.37249  Biso   1.000  H
  H484     1.0000 0.15548  0.97761  0.37249  Biso   1.000  H
  N87      1.0000 0.23542  0.96535  0.44934  Biso   1.000  N
  H485     1.0000 0.20981  0.90356  0.49510  Biso   1.000  H
  N88      1.0000 0.23542  0.96531  0.44934  Biso   1.000  N
  H486     1.0000 0.20981  0.90352  0.49510  Biso   1.000  H
  H487     1.0000 0.20976  0.90356  0.49510  Biso   1.000  H
  H488     1.0000 0.20976  0.90352  0.49510  Biso   1.000  H
  C403     1.0000 0.97150  0.01472  0.21477  Biso   1.000  C
  C404     1.0000 0.97154  0.01472  0.21477  Biso   1.000  C
  H489     1.0000 0.96192  0.31990  0.46792  Biso   1.000  H
  H490     1.0000 0.01400  0.28572  0.44090  Biso   1.000  H
  H491     1.0000 0.01404  0.28572  0.44090  Biso   1.000  H
  H492     1.0000 0.31990  0.96794  0.46189  Biso   1.000  H
  H493     1.0000 0.28572  0.94092  0.51402  Biso   1.000  H
  C405     1.0000 0.02850  0.98533  0.21477  Biso   1.000  C
  C406     1.0000 0.02850  0.98528  0.21477  Biso   1.000  C
  C407     1.0000 0.02846  0.98533  0.21477  Biso   1.000  C
  C408     1.0000 0.02846  0.98528  0.21477  Biso   1.000  C
  H494     1.0000 0.94092  0.98605  0.21430  Biso   1.000  H
  H495     1.0000 0.94092  0.98600  0.21430  Biso   1.000  H
  H496     1.0000 0.96794  0.03808  0.18012  Biso   1.000  H
  H497     1.0000 0.96794  0.03813  0.18012  Biso   1.000  H
  H498     1.0000 0.03206  0.96192  0.18012  Biso   1.000  H
  H499     1.0000 0.05908  0.01400  0.21430  Biso   1.000  H
  H500     1.0000 0.05908  0.01404  0.21430  Biso   1.000  H
  C409     1.0000 0.61741  0.86611  0.94516  Biso   1.000  C
  C410     1.0000 0.61741  0.86607  0.94516  Biso   1.000  C
  C411     1.0000 0.70147  0.92578  0.96268  Biso   1.000  C
  C412     1.0000 0.70147  0.92578  0.96264  Biso   1.000  C
  C413     1.0000 0.63395  0.94516  0.88265  Biso   1.000  C
  C414     1.0000 0.63395  0.94516  0.88261  Biso   1.000  C
  C415     1.0000 0.56987  0.85033  0.91280  Biso   1.000  C
  C416     1.0000 0.56987  0.85033  0.91276  Biso   1.000  C
  C417     1.0000 0.56987  0.85029  0.91280  Biso   1.000  C
  C418     1.0000 0.56987  0.85029  0.91276  Biso   1.000  C
  H501     1.0000 0.62751  0.84452  0.97765  Biso   1.000  H
  H502     1.0000 0.62751  0.84452  0.97761  Biso   1.000  H
  C419     1.0000 0.64973  0.91280  0.93015  Biso   1.000  C
  C420     1.0000 0.64973  0.91276  0.93015  Biso   1.000  C
  N89      1.0000 0.73544  0.96535  0.94932  Biso   1.000  N
  H503     1.0000 0.70983  0.90356  0.99512  Biso   1.000  H
  N90      1.0000 0.73544  0.96535  0.94936  Biso   1.000  N
  N91      1.0000 0.73544  0.96531  0.94932  Biso   1.000  N
  H504     1.0000 0.70983  0.90352  0.99512  Biso   1.000  H
  N92      1.0000 0.73544  0.96531  0.94936  Biso   1.000  N
  C421     1.0000 0.58726  0.93015  0.85033  Biso   1.000  C
  C422     1.0000 0.58726  0.93015  0.85029  Biso   1.000  C
  H505     1.0000 0.65550  0.97765  0.87256  Biso   1.000  H
  H506     1.0000 0.65550  0.97765  0.87251  Biso   1.000  H
  H507     1.0000 0.65550  0.97761  0.87256  Biso   1.000  H
  H508     1.0000 0.65550  0.97761  0.87251  Biso   1.000  H
  C423     1.0000 0.53738  0.79855  0.92578  Biso   1.000  C
  C424     1.0000 0.55486  0.88265  0.86611  Biso   1.000  C
  C425     1.0000 0.55486  0.88265  0.86607  Biso   1.000  C
  C426     1.0000 0.55486  0.88261  0.86611  Biso   1.000  C
  C427     1.0000 0.55486  0.88261  0.86607  Biso   1.000  C
  C428     1.0000 0.78528  0.97150  0.98533  Biso   1.000  C
  C429     1.0000 0.78528  0.97150  0.98528  Biso   1.000  C
  C430     1.0000 0.78528  0.97154  0.98533  Biso   1.000  C
  C431     1.0000 0.78528  0.97154  0.98528  Biso   1.000  C
  C432     1.0000 0.57424  0.96268  0.79855  Biso   1.000  C
  C433     1.0000 0.57424  0.96264  0.79855  Biso   1.000  C
  N93      1.0000 0.55066  0.76462  0.96535  Biso   1.000  N
  H509     1.0000 0.50490  0.79024  0.90356  Biso   1.000  H
  N94      1.0000 0.55066  0.76462  0.96531  Biso   1.000  N
  H510     1.0000 0.50490  0.79024  0.90352  Biso   1.000  H
  H511     1.0000 0.52241  0.87256  0.84452  Biso   1.000  H
  H512     1.0000 0.52241  0.87251  0.84452  Biso   1.000  H
  H513     1.0000 0.81992  0.96794  0.96192  Biso   1.000  H
  H514     1.0000 0.78570  0.94092  0.01400  Biso   1.000  H
  H515     1.0000 0.78570  0.94092  0.01404  Biso   1.000  H
  C434     1.0000 0.78528  0.02850  0.01472  Biso   1.000  C
  C435     1.0000 0.78528  0.02846  0.01472  Biso   1.000  C
  H516     1.0000 0.59651  0.99512  0.79024  Biso   1.000  H
  N95      1.0000 0.53471  0.94932  0.76462  Biso   1.000  N
  N96      1.0000 0.53471  0.94936  0.76462  Biso   1.000  N
  C436     1.0000 0.51474  0.71475  0.97150  Biso   1.000  C
  C437     1.0000 0.51474  0.71475  0.97154  Biso   1.000  C
  H517     1.0000 0.78570  0.05908  0.98605  Biso   1.000  H
  H518     1.0000 0.78570  0.05908  0.98600  Biso   1.000  H
  N97      1.0000 0.73544  0.03469  0.05068  Biso   1.000  N
  N98      1.0000 0.73544  0.03473  0.05068  Biso   1.000  N
  H519     1.0000 0.81992  0.03206  0.03808  Biso   1.000  H
  H520     1.0000 0.81992  0.03206  0.03813  Biso   1.000  H
  C438     1.0000 0.52848  0.98533  0.71475  Biso   1.000  C
  C439     1.0000 0.52848  0.98528  0.71475  Biso   1.000  C
  H521     1.0000 0.48603  0.71432  0.94092  Biso   1.000  H
  H522     1.0000 0.53811  0.68010  0.96794  Biso   1.000  H
  C440     1.0000 0.48530  0.71475  0.02850  Biso   1.000  C
  C441     1.0000 0.48530  0.71475  0.02846  Biso   1.000  C
  C442     1.0000 0.70147  0.07422  0.03736  Biso   1.000  C
  H523     1.0000 0.53213  0.96192  0.68010  Biso   1.000  H
  H524     1.0000 0.55910  0.01400  0.71432  Biso   1.000  H
  C443     1.0000 0.47152  0.01472  0.71475  Biso   1.000  C
  H525     1.0000 0.55910  0.01404  0.71432  Biso   1.000  H
  N99      1.0000 0.44934  0.76462  0.03469  Biso   1.000  N
  N100     1.0000 0.44934  0.76462  0.03473  Biso   1.000  N
  H526     1.0000 0.51402  0.71432  0.05908  Biso   1.000  H
  H527     1.0000 0.46189  0.68010  0.03206  Biso   1.000  H
  H528     1.0000 0.70983  0.09648  0.00492  Biso   1.000  H
  C444     1.0000 0.64973  0.08724  0.06989  Biso   1.000  C
  H529     1.0000 0.70983  0.09653  0.00492  Biso   1.000  H
  H530     1.0000 0.44090  0.98605  0.71432  Biso   1.000  H
  H531     1.0000 0.44090  0.98600  0.71432  Biso   1.000  H
  N101     1.0000 0.46529  0.05068  0.76462  Biso   1.000  N
  H532     1.0000 0.46792  0.03808  0.68010  Biso   1.000  H
  H533     1.0000 0.46792  0.03813  0.68010  Biso   1.000  H
  C445     1.0000 0.46266  0.79855  0.07422  Biso   1.000  C
  C446     1.0000 0.63395  0.05484  0.11739  Biso   1.000  C
  C447     1.0000 0.61741  0.13393  0.05484  Biso   1.000  C
  C448     1.0000 0.61741  0.13398  0.05484  Biso   1.000  C
  C449     1.0000 0.42576  0.03736  0.79855  Biso   1.000  C
  H534     1.0000 0.49510  0.79024  0.09648  Biso   1.000  H
  C450     1.0000 0.43013  0.85033  0.08724  Biso   1.000  C
  H535     1.0000 0.49510  0.79024  0.09653  Biso   1.000  H
  C451     1.0000 0.43013  0.85029  0.08724  Biso   1.000  C
  H536     1.0000 0.65550  0.02239  0.12749  Biso   1.000  H
  C452     1.0000 0.58726  0.06989  0.14975  Biso   1.000  C
  H537     1.0000 0.65550  0.02244  0.12749  Biso   1.000  H
  C453     1.0000 0.56987  0.14975  0.08724  Biso   1.000  C
  H538     1.0000 0.62751  0.15548  0.02239  Biso   1.000  H
  H539     1.0000 0.62751  0.15548  0.02244  Biso   1.000  H
  H540     1.0000 0.40349  0.00492  0.79024  Biso   1.000  H
  C454     1.0000 0.41278  0.06989  0.85033  Biso   1.000  C
  C455     1.0000 0.41278  0.06989  0.85029  Biso   1.000  C
  C456     1.0000 0.38259  0.86611  0.05484  Biso   1.000  C
  C457     1.0000 0.44514  0.88265  0.13393  Biso   1.000  C
  C458     1.0000 0.44514  0.88265  0.13398  Biso   1.000  C
  C459     1.0000 0.38259  0.86607  0.05484  Biso   1.000  C
  C460     1.0000 0.44514  0.88261  0.13393  Biso   1.000  C
  C461     1.0000 0.44514  0.88261  0.13398  Biso   1.000  C
  C462     1.0000 0.57424  0.03736  0.20145  Biso   1.000  C
  C463     1.0000 0.55486  0.11739  0.13393  Biso   1.000  C
  C464     1.0000 0.55486  0.11739  0.13398  Biso   1.000  C
  C465     1.0000 0.53738  0.20145  0.07422  Biso   1.000  C
  C466     1.0000 0.36605  0.05484  0.88265  Biso   1.000  C
  C467     1.0000 0.44514  0.11739  0.86611  Biso   1.000  C
  C468     1.0000 0.36605  0.05484  0.88261  Biso   1.000  C
  C469     1.0000 0.44514  0.11739  0.86607  Biso   1.000  C
  C470     1.0000 0.35027  0.91280  0.06989  Biso   1.000  C
  H541     1.0000 0.37249  0.84452  0.02239  Biso   1.000  H
  H542     1.0000 0.37249  0.84452  0.02244  Biso   1.000  H
  C471     1.0000 0.35027  0.91276  0.06989  Biso   1.000  C
  H543     1.0000 0.47763  0.87256  0.15548  Biso   1.000  H
  C472     1.0000 0.41278  0.93015  0.14975  Biso   1.000  C
  H544     1.0000 0.47763  0.87251  0.15548  Biso   1.000  H
  N102     1.0000 0.53471  0.05068  0.23542  Biso   1.000  N
  H545     1.0000 0.59651  0.00492  0.20981  Biso   1.000  H
  H546     1.0000 0.59651  0.00492  0.20976  Biso   1.000  H
  H547     1.0000 0.52241  0.12749  0.15548  Biso   1.000  H
  N103     1.0000 0.55066  0.23542  0.03469  Biso   1.000  N
  H548     1.0000 0.50490  0.20981  0.09648  Biso   1.000  H
  N104     1.0000 0.55066  0.23542  0.03473  Biso   1.000  N
  H549     1.0000 0.50490  0.20981  0.09653  Biso   1.000  H
  H550     1.0000 0.50490  0.20976  0.09648  Biso   1.000  H
  H551     1.0000 0.50490  0.20976  0.09653  Biso   1.000  H
  H552     1.0000 0.34450  0.02239  0.87256  Biso   1.000  H
  C473     1.0000 0.35027  0.08724  0.93015  Biso   1.000  C
  H553     1.0000 0.34450  0.02239  0.87251  Biso   1.000  H
  H554     1.0000 0.34450  0.02244  0.87256  Biso   1.000  H
  H555     1.0000 0.34450  0.02244  0.87251  Biso   1.000  H
  H556     1.0000 0.47763  0.12749  0.84452  Biso   1.000  H
  C474     1.0000 0.43013  0.14975  0.91280  Biso   1.000  C
  C475     1.0000 0.43013  0.14975  0.91276  Biso   1.000  C
  C476     1.0000 0.29853  0.92578  0.03736  Biso   1.000  C
  C477     1.0000 0.36605  0.94516  0.11739  Biso   1.000  C
  C478     1.0000 0.42576  0.96268  0.20145  Biso   1.000  C
  C479     1.0000 0.42576  0.96264  0.20145  Biso   1.000  C
  C480     1.0000 0.52848  0.01472  0.28525  Biso   1.000  C
  C481     1.0000 0.52848  0.01472  0.28530  Biso   1.000  C
  C482     1.0000 0.51474  0.28525  0.02850  Biso   1.000  C
  C483     1.0000 0.51474  0.28525  0.02846  Biso   1.000  C
  C484     1.0000 0.51474  0.28530  0.02850  Biso   1.000  C
  C485     1.0000 0.51474  0.28530  0.02846  Biso   1.000  C
  C486     1.0000 0.29853  0.07422  0.96268  Biso   1.000  C
  C487     1.0000 0.29853  0.07422  0.96264  Biso   1.000  C
  C488     1.0000 0.38259  0.13393  0.94516  Biso   1.000  C
  C489     1.0000 0.38259  0.13398  0.94516  Biso   1.000  C
  C490     1.0000 0.46266  0.20145  0.92578  Biso   1.000  C
  N105     1.0000 0.26460  0.96535  0.05068  Biso   1.000  N
  H557     1.0000 0.29022  0.90356  0.00492  Biso   1.000  H
  N106     1.0000 0.26460  0.96531  0.05068  Biso   1.000  N
  H558     1.0000 0.29022  0.90352  0.00492  Biso   1.000  H
  H559     1.0000 0.34450  0.97765  0.12749  Biso   1.000  H
  H560     1.0000 0.34450  0.97761  0.12749  Biso   1.000  H
  N107     1.0000 0.46529  0.94932  0.23542  Biso   1.000  N
  H561     1.0000 0.40349  0.99512  0.20981  Biso   1.000  H
  H562     1.0000 0.40349  0.99512  0.20976  Biso   1.000  H
  N108     1.0000 0.46529  0.94936  0.23542  Biso   1.000  N
  C491     1.0000 0.47152  0.98533  0.28525  Biso   1.000  C
  C492     1.0000 0.47152  0.98533  0.28530  Biso   1.000  C
  C493     1.0000 0.47152  0.98528  0.28525  Biso   1.000  C
  C494     1.0000 0.47152  0.98528  0.28530  Biso   1.000  C
  H563     1.0000 0.55910  0.98605  0.28572  Biso   1.000  H
  H564     1.0000 0.55910  0.98600  0.28572  Biso   1.000  H
  H565     1.0000 0.53213  0.03808  0.31990  Biso   1.000  H
  H566     1.0000 0.53213  0.03813  0.31990  Biso   1.000  H
  C495     1.0000 0.48530  0.28525  0.97150  Biso   1.000  C
  C496     1.0000 0.48530  0.28525  0.97154  Biso   1.000  C
  C497     1.0000 0.48530  0.28530  0.97150  Biso   1.000  C
  C498     1.0000 0.48530  0.28530  0.97154  Biso   1.000  C
  H567     1.0000 0.53811  0.31990  0.03206  Biso   1.000  H
  H568     1.0000 0.48603  0.28572  0.05908  Biso   1.000  H
  N109     1.0000 0.26460  0.03469  0.94932  Biso   1.000  N
  N110     1.0000 0.26460  0.03469  0.94936  Biso   1.000  N
  N111     1.0000 0.26460  0.03473  0.94932  Biso   1.000  N
  N112     1.0000 0.26460  0.03473  0.94936  Biso   1.000  N
  H569     1.0000 0.29022  0.09648  0.99512  Biso   1.000  H
  H570     1.0000 0.29022  0.09653  0.99512  Biso   1.000  H
  H571     1.0000 0.37249  0.15548  0.97765  Biso   1.000  H
  H572     1.0000 0.37249  0.15548  0.97761  Biso   1.000  H
  N113     1.0000 0.44934  0.23542  0.96535  Biso   1.000  N
  H573     1.0000 0.49510  0.20981  0.90356  Biso   1.000  H
  N114     1.0000 0.44934  0.23542  0.96531  Biso   1.000  N
  H574     1.0000 0.49510  0.20981  0.90352  Biso   1.000  H
  H575     1.0000 0.49510  0.20976  0.90356  Biso   1.000  H
  H576     1.0000 0.49510  0.20976  0.90352  Biso   1.000  H
  C499     1.0000 0.21477  0.97150  0.01472  Biso   1.000  C
  C500     1.0000 0.21477  0.97154  0.01472  Biso   1.000  C
  H577     1.0000 0.46792  0.96192  0.31990  Biso   1.000  H
  H578     1.0000 0.44090  0.01400  0.28572  Biso   1.000  H
  H579     1.0000 0.44090  0.01404  0.28572  Biso   1.000  H
  H580     1.0000 0.46189  0.31990  0.96794  Biso   1.000  H
  H581     1.0000 0.51402  0.28572  0.94092  Biso   1.000  H
  C501     1.0000 0.21477  0.02850  0.98533  Biso   1.000  C
  C502     1.0000 0.21477  0.02850  0.98528  Biso   1.000  C
  C503     1.0000 0.21477  0.02846  0.98533  Biso   1.000  C
  C504     1.0000 0.21477  0.02846  0.98528  Biso   1.000  C
  H582     1.0000 0.21430  0.94092  0.98605  Biso   1.000  H
  H583     1.0000 0.21430  0.94092  0.98600  Biso   1.000  H
  H584     1.0000 0.18012  0.96794  0.03808  Biso   1.000  H
  H585     1.0000 0.18012  0.96794  0.03813  Biso   1.000  H
  H586     1.0000 0.18012  0.03206  0.96192  Biso   1.000  H
  H587     1.0000 0.21430  0.05908  0.01400  Biso   1.000  H
  H588     1.0000 0.21430  0.05908  0.01404  Biso   1.000  H
  C505     1.0000 0.64973  0.58726  0.56987  Biso   1.000  C
  C506     1.0000 0.70147  0.57424  0.53738  Biso   1.000  C
  C507     1.0000 0.63395  0.55486  0.61741  Biso   1.000  C
  C508     1.0000 0.61741  0.63395  0.55486  Biso   1.000  C
  N115     1.0000 0.73544  0.53471  0.55066  Biso   1.000  N
  H589     1.0000 0.70983  0.59651  0.50490  Biso   1.000  H
  C509     1.0000 0.58726  0.56987  0.64973  Biso   1.000  C
  H590     1.0000 0.65550  0.52241  0.62751  Biso   1.000  H
  C510     1.0000 0.56987  0.64973  0.58726  Biso   1.000  C
  H591     1.0000 0.62751  0.65550  0.52241  Biso   1.000  H
  C511     1.0000 0.78528  0.52848  0.51474  Biso   1.000  C
  C512     1.0000 0.57424  0.53738  0.70147  Biso   1.000  C
  C513     1.0000 0.55486  0.61741  0.63395  Biso   1.000  C
  C514     1.0000 0.53738  0.70147  0.57424  Biso   1.000  C
  C515     1.0000 0.78528  0.47152  0.48530  Biso   1.000  C
  H592     1.0000 0.81992  0.53213  0.53811  Biso   1.000  H
  H593     1.0000 0.78570  0.55910  0.48603  Biso   1.000  H
  N116     1.0000 0.53471  0.55066  0.73544  Biso   1.000  N
  H594     1.0000 0.59651  0.50490  0.70983  Biso   1.000  H
  H595     1.0000 0.52241  0.62751  0.65550  Biso   1.000  H
  N117     1.0000 0.55066  0.73544  0.53471  Biso   1.000  N
  H596     1.0000 0.50490  0.70983  0.59651  Biso   1.000  H
  N118     1.0000 0.73544  0.46529  0.44934  Biso   1.000  N
  H597     1.0000 0.81992  0.46792  0.46189  Biso   1.000  H
  H598     1.0000 0.78570  0.44090  0.51402  Biso   1.000  H
  C516     1.0000 0.52848  0.51474  0.78528  Biso   1.000  C
  C517     1.0000 0.51474  0.78528  0.52848  Biso   1.000  C
  C518     1.0000 0.70147  0.42576  0.46266  Biso   1.000  C
  C519     1.0000 0.47152  0.48530  0.78528  Biso   1.000  C
  H599     1.0000 0.53213  0.53811  0.81992  Biso   1.000  H
  H600     1.0000 0.55910  0.48603  0.78570  Biso   1.000  H
  C520     1.0000 0.48530  0.78528  0.47152  Biso   1.000  C
  H601     1.0000 0.53811  0.81992  0.53213  Biso   1.000  H
  H602     1.0000 0.48603  0.78570  0.55910  Biso   1.000  H
  C521     1.0000 0.64973  0.41278  0.43013  Biso   1.000  C
  H603     1.0000 0.70983  0.40349  0.49510  Biso   1.000  H
  N119     1.0000 0.46529  0.44934  0.73544  Biso   1.000  N
  H604     1.0000 0.46792  0.46189  0.81992  Biso   1.000  H
  H605     1.0000 0.44090  0.51402  0.78570  Biso   1.000  H
  N120     1.0000 0.44934  0.73544  0.46529  Biso   1.000  N
  H606     1.0000 0.46189  0.81992  0.46792  Biso   1.000  H
  H607     1.0000 0.51402  0.78570  0.44090  Biso   1.000  H
  C522     1.0000 0.61741  0.36605  0.44514  Biso   1.000  C
  C523     1.0000 0.63395  0.44514  0.38259  Biso   1.000  C
  C524     1.0000 0.42576  0.46266  0.70147  Biso   1.000  C
  C525     1.0000 0.46266  0.70147  0.42576  Biso   1.000  C
  C526     1.0000 0.56987  0.35027  0.41278  Biso   1.000  C
  H608     1.0000 0.62751  0.34450  0.47763  Biso   1.000  H
  C527     1.0000 0.58726  0.43013  0.35027  Biso   1.000  C
  H609     1.0000 0.65550  0.47763  0.37249  Biso   1.000  H
  C528     1.0000 0.41278  0.43013  0.64973  Biso   1.000  C
  H610     1.0000 0.40349  0.49510  0.70983  Biso   1.000  H
  C529     1.0000 0.43013  0.64973  0.41278  Biso   1.000  C
  H611     1.0000 0.49510  0.70983  0.40349  Biso   1.000  H
  C530     1.0000 0.53738  0.29853  0.42576  Biso   1.000  C
  C531     1.0000 0.55486  0.38259  0.36605  Biso   1.000  C
  C532     1.0000 0.57424  0.46266  0.29853  Biso   1.000  C
  C533     1.0000 0.44514  0.38259  0.63395  Biso   1.000  C
  C534     1.0000 0.36605  0.44514  0.61741  Biso   1.000  C
  C535     1.0000 0.44514  0.61741  0.36605  Biso   1.000  C
  C536     1.0000 0.38259  0.63395  0.44514  Biso   1.000  C
  N121     1.0000 0.55066  0.26460  0.46529  Biso   1.000  N
  H612     1.0000 0.50490  0.29022  0.40349  Biso   1.000  H
  H613     1.0000 0.52241  0.37249  0.34450  Biso   1.000  H
  N122     1.0000 0.53471  0.44934  0.26460  Biso   1.000  N
  H614     1.0000 0.59651  0.49510  0.29022  Biso   1.000  H
  C537     1.0000 0.43013  0.35027  0.58726  Biso   1.000  C
  H615     1.0000 0.47763  0.37249  0.65550  Biso   1.000  H
  C538     1.0000 0.35027  0.41278  0.56987  Biso   1.000  C
  H616     1.0000 0.34450  0.47763  0.62751  Biso   1.000  H
  C539     1.0000 0.41278  0.56987  0.35027  Biso   1.000  C
  H617     1.0000 0.47763  0.62751  0.34450  Biso   1.000  H
  C540     1.0000 0.35027  0.58726  0.43013  Biso   1.000  C
  H618     1.0000 0.37249  0.65550  0.47763  Biso   1.000  H
  C541     1.0000 0.51474  0.21477  0.47152  Biso   1.000  C
  C542     1.0000 0.52848  0.48530  0.21477  Biso   1.000  C
  C543     1.0000 0.46266  0.29853  0.57424  Biso   1.000  C
  C544     1.0000 0.38259  0.36605  0.55486  Biso   1.000  C
  C545     1.0000 0.29853  0.42576  0.53738  Biso   1.000  C
  C546     1.0000 0.42576  0.53738  0.29853  Biso   1.000  C
  C547     1.0000 0.36605  0.55486  0.38259  Biso   1.000  C
  C548     1.0000 0.29853  0.57424  0.46266  Biso   1.000  C
  H619     1.0000 0.53811  0.18012  0.46792  Biso   1.000  H
  H620     1.0000 0.48603  0.21430  0.44090  Biso   1.000  H
  C549     1.0000 0.48530  0.21477  0.52848  Biso   1.000  C
  C550     1.0000 0.47152  0.51474  0.21477  Biso   1.000  C
  H621     1.0000 0.53213  0.46189  0.18012  Biso   1.000  H
  H622     1.0000 0.55910  0.51402  0.21430  Biso   1.000  H
  N123     1.0000 0.44934  0.26460  0.53471  Biso   1.000  N
  H623     1.0000 0.49510  0.29022  0.59651  Biso   1.000  H
  H624     1.0000 0.37249  0.34450  0.52241  Biso   1.000  H
  N124     1.0000 0.26460  0.46529  0.55066  Biso   1.000  N
  H625     1.0000 0.29022  0.40349  0.50490  Biso   1.000  H
  N125     1.0000 0.46529  0.55066  0.26460  Biso   1.000  N
  H626     1.0000 0.40349  0.50490  0.29022  Biso   1.000  H
  H627     1.0000 0.34450  0.52241  0.37249  Biso   1.000  H
  N126     1.0000 0.26460  0.53471  0.44934  Biso   1.000  N
  H628     1.0000 0.29022  0.59651  0.49510  Biso   1.000  H
  H629     1.0000 0.46189  0.18012  0.53213  Biso   1.000  H
  H630     1.0000 0.51402  0.21430  0.55910  Biso   1.000  H
  H631     1.0000 0.46792  0.53811  0.18012  Biso   1.000  H
  H632     1.0000 0.44090  0.48603  0.21430  Biso   1.000  H
  C551     1.0000 0.21477  0.47152  0.51474  Biso   1.000  C
  C552     1.0000 0.21477  0.52848  0.48530  Biso   1.000  C
  H633     1.0000 0.18012  0.46792  0.53811  Biso   1.000  H
  H634     1.0000 0.21430  0.44090  0.48603  Biso   1.000  H
  H635     1.0000 0.18012  0.53213  0.46189  Biso   1.000  H
  H636     1.0000 0.21430  0.55910  0.51402  Biso   1.000  H
  C553     1.0000 0.63141  0.26256  0.25981  Biso   1.000  C
  C554     1.0000 0.59311  0.21519  0.28899  Biso   1.000  C
  C555     1.0000 0.59311  0.28483  0.21104  Biso   1.000  C
  H637     1.0000 0.64082  0.29323  0.28691  Biso   1.000  H
  H638     1.0000 0.66703  0.24611  0.24479  Biso   1.000  H
  H639     1.0000 0.66703  0.25391  0.25518  Biso   1.000  H
  C556     1.0000 0.53450  0.21994  0.26176  Biso   1.000  C
  H640     1.0000 0.60333  0.17609  0.30052  Biso   1.000  H
  H641     1.0000 0.59540  0.23801  0.32410  Biso   1.000  H
  C557     1.0000 0.63141  0.23746  0.24021  Biso   1.000  C
  H642     1.0000 0.60931  0.17702  0.28229  Biso   1.000  H
  H643     1.0000 0.59070  0.22172  0.33042  Biso   1.000  H
  C558     1.0000 0.53450  0.28008  0.23826  Biso   1.000  C
  H644     1.0000 0.60333  0.32389  0.19950  Biso   1.000  H
  H645     1.0000 0.59540  0.26201  0.17592  Biso   1.000  H
  H646     1.0000 0.60931  0.32300  0.21769  Biso   1.000  H
  H647     1.0000 0.59070  0.27830  0.16960  Biso   1.000  H
  N127     1.0000 0.48802  0.21074  0.30086  Biso   1.000  N
  H648     1.0000 0.53162  0.19229  0.22970  Biso   1.000  H
  H649     1.0000 0.64082  0.20679  0.21311  Biso   1.000  H
  N128     1.0000 0.48802  0.28928  0.19912  Biso   1.000  N
  H650     1.0000 0.53162  0.30769  0.27033  Biso   1.000  H
  C559     1.0000 0.45256  0.17248  0.28763  Biso   1.000  C
  C560     1.0000 0.45256  0.32754  0.21235  Biso   1.000  C
  C561     1.0000 0.40248  0.15917  0.32215  Biso   1.000  C
  H651     1.0000 0.45871  0.15141  0.25379  Biso   1.000  H
  H652     1.0000 0.45871  0.34862  0.24619  Biso   1.000  H
  C562     1.0000 0.40248  0.34085  0.17783  Biso   1.000  C
  C563     1.0000 0.36940  0.11239  0.30816  Biso   1.000  C
  C564     1.0000 0.38763  0.19182  0.36940  Biso   1.000  C
  C565     1.0000 0.36940  0.38763  0.19182  Biso   1.000  C
  C566     1.0000 0.38763  0.30816  0.13062  Biso   1.000  C
  C567     1.0000 0.32215  0.09754  0.34085  Biso   1.000  C
  H653     1.0000 0.37902  0.09021  0.27592  Biso   1.000  H
  C568     1.0000 0.34085  0.17783  0.40248  Biso   1.000  C
  H654     1.0000 0.40981  0.22410  0.37902  Biso   1.000  H
  H655     1.0000 0.37902  0.40981  0.22410  Biso   1.000  H
  C569     1.0000 0.32215  0.40248  0.15917  Biso   1.000  C
  C570     1.0000 0.34085  0.32215  0.09754  Biso   1.000  C
  H656     1.0000 0.40981  0.27592  0.12100  Biso   1.000  H
  C571     1.0000 0.28763  0.04742  0.32754  Biso   1.000  C
  C572     1.0000 0.30816  0.13062  0.38763  Biso   1.000  C
  C573     1.0000 0.32754  0.21235  0.45256  Biso   1.000  C
  C574     1.0000 0.28763  0.45256  0.17248  Biso   1.000  C
  C575     1.0000 0.30816  0.36940  0.11239  Biso   1.000  C
  C576     1.0000 0.32754  0.28763  0.04742  Biso   1.000  C
  N129     1.0000 0.30086  0.01200  0.28928  Biso   1.000  N
  H657     1.0000 0.25379  0.04131  0.34862  Biso   1.000  H
  H658     1.0000 0.27592  0.12100  0.40981  Biso   1.000  H
  N130     1.0000 0.28928  0.19912  0.48802  Biso   1.000  N
  H659     1.0000 0.34862  0.24619  0.45871  Biso   1.000  H
  N131     1.0000 0.30086  0.48802  0.21074  Biso   1.000  N
  H660     1.0000 0.25379  0.45871  0.15141  Biso   1.000  H
  H661     1.0000 0.27592  0.37902  0.09021  Biso   1.000  H
  N132     1.0000 0.28928  0.30086  0.01200  Biso   1.000  N
  H662     1.0000 0.34862  0.25379  0.04131  Biso   1.000  H
  C577     1.0000 0.26176  0.96556  0.28008  Biso   1.000  C
  C578     1.0000 0.28008  0.23826  0.53450  Biso   1.000  C
  C579     1.0000 0.26176  0.53450  0.21994  Biso   1.000  C
  C580     1.0000 0.28008  0.26176  0.96556  Biso   1.000  C
  C581     1.0000 0.23826  0.96556  0.21994  Biso   1.000  C
  H663     1.0000 0.22970  0.96840  0.30769  Biso   1.000  H
  C582     1.0000 0.28899  0.90691  0.28483  Biso   1.000  C
  C583     1.0000 0.21994  0.26176  0.53450  Biso   1.000  C
  H664     1.0000 0.30769  0.27033  0.53162  Biso   1.000  H
  C584     1.0000 0.28483  0.21104  0.59311  Biso   1.000  C
  C585     1.0000 0.23826  0.53450  0.28008  Biso   1.000  C
  H665     1.0000 0.22970  0.53162  0.19229  Biso   1.000  H
  C586     1.0000 0.28899  0.59311  0.21519  Biso   1.000  C
  C587     1.0000 0.21994  0.23826  0.96556  Biso   1.000  C
  H666     1.0000 0.30769  0.22970  0.96840  Biso   1.000  H
  C588     1.0000 0.28483  0.28899  0.90691  Biso   1.000  C
  N133     1.0000 0.19912  0.01200  0.21074  Biso   1.000  N
  H667     1.0000 0.27033  0.96840  0.19229  Biso   1.000  H
  C589     1.0000 0.21104  0.90691  0.21519  Biso   1.000  C
  H668     1.0000 0.30052  0.89673  0.32389  Biso   1.000  H
  H669     1.0000 0.32410  0.90466  0.26201  Biso   1.000  H
  C590     1.0000 0.25981  0.86865  0.23746  Biso   1.000  C
  C591     1.0000 0.24021  0.86865  0.26256  Biso   1.000  C
  H670     1.0000 0.28229  0.89071  0.32300  Biso   1.000  H
  H671     1.0000 0.33042  0.90933  0.27830  Biso   1.000  H
  N134     1.0000 0.21074  0.30086  0.48802  Biso   1.000  N
  H672     1.0000 0.19229  0.22970  0.53162  Biso   1.000  H
  C592     1.0000 0.21519  0.28899  0.59311  Biso   1.000  C
  H673     1.0000 0.32389  0.19950  0.60333  Biso   1.000  H
  H674     1.0000 0.26201  0.17592  0.59540  Biso   1.000  H
  C593     1.0000 0.26256  0.25981  0.63141  Biso   1.000  C
  C594     1.0000 0.23746  0.24021  0.63141  Biso   1.000  C
  H675     1.0000 0.32300  0.21769  0.60931  Biso   1.000  H
  H676     1.0000 0.27830  0.16960  0.59070  Biso   1.000  H
  N135     1.0000 0.19912  0.48802  0.28928  Biso   1.000  N
  H677     1.0000 0.27033  0.53162  0.30769  Biso   1.000  H
  C595     1.0000 0.21104  0.59311  0.28483  Biso   1.000  C
  H678     1.0000 0.30052  0.60333  0.17609  Biso   1.000  H
  H679     1.0000 0.32410  0.59540  0.23801  Biso   1.000  H
  C596     1.0000 0.25981  0.63141  0.26256  Biso   1.000  C
  C597     1.0000 0.24021  0.63141  0.23746  Biso   1.000  C
  H680     1.0000 0.28229  0.60931  0.17702  Biso   1.000  H
  H681     1.0000 0.33042  0.59070  0.22172  Biso   1.000  H
  N136     1.0000 0.21074  0.19912  0.01200  Biso   1.000  N
  H682     1.0000 0.19229  0.27033  0.96840  Biso   1.000  H
  C598     1.0000 0.21519  0.21104  0.90691  Biso   1.000  C
  H683     1.0000 0.32389  0.30052  0.89673  Biso   1.000  H
  H684     1.0000 0.26201  0.32410  0.90466  Biso   1.000  H
  C599     1.0000 0.26256  0.24021  0.86865  Biso   1.000  C
  C600     1.0000 0.23746  0.25981  0.86865  Biso   1.000  C
  H685     1.0000 0.32300  0.28229  0.89071  Biso   1.000  H
  H686     1.0000 0.27830  0.33042  0.90933  Biso   1.000  H
  C601     1.0000 0.21235  0.04742  0.17248  Biso   1.000  C
  H687     1.0000 0.19950  0.89673  0.17609  Biso   1.000  H
  H688     1.0000 0.17592  0.90466  0.23801  Biso   1.000  H
  H689     1.0000 0.21769  0.89071  0.17702  Biso   1.000  H
  H690     1.0000 0.16960  0.90933  0.22172  Biso   1.000  H
  H691     1.0000 0.28691  0.85924  0.20679  Biso   1.000  H
  H692     1.0000 0.24479  0.83303  0.25391  Biso   1.000  H
  H693     1.0000 0.25518  0.83303  0.24611  Biso   1.000  H
  H694     1.0000 0.21311  0.85924  0.29323  Biso   1.000  H
  C602     1.0000 0.17248  0.28763  0.45256  Biso   1.000  C
  H695     1.0000 0.17609  0.30052  0.60333  Biso   1.000  H
  H696     1.0000 0.23801  0.32410  0.59540  Biso   1.000  H
  H697     1.0000 0.17702  0.28229  0.60931  Biso   1.000  H
  H698     1.0000 0.22172  0.33042  0.59070  Biso   1.000  H
  H699     1.0000 0.29323  0.28691  0.64082  Biso   1.000  H
  H700     1.0000 0.24611  0.24479  0.66703  Biso   1.000  H
  H701     1.0000 0.25391  0.25518  0.66703  Biso   1.000  H
  H702     1.0000 0.20679  0.21311  0.64082  Biso   1.000  H
  C603     1.0000 0.21235  0.45256  0.32754  Biso   1.000  C
  H703     1.0000 0.19950  0.60333  0.32389  Biso   1.000  H
  H704     1.0000 0.17592  0.59540  0.26201  Biso   1.000  H
  H705     1.0000 0.21769  0.60931  0.32300  Biso   1.000  H
  H706     1.0000 0.16960  0.59070  0.27830  Biso   1.000  H
  H707     1.0000 0.28691  0.64082  0.29323  Biso   1.000  H
  H708     1.0000 0.24479  0.66703  0.24611  Biso   1.000  H
  H709     1.0000 0.25518  0.66703  0.25391  Biso   1.000  H
  H710     1.0000 0.21311  0.64082  0.20679  Biso   1.000  H
  C604     1.0000 0.17248  0.21235  0.04742  Biso   1.000  C
  H711     1.0000 0.17609  0.19950  0.89673  Biso   1.000  H
  H712     1.0000 0.23801  0.17592  0.90466  Biso   1.000  H
  H713     1.0000 0.17702  0.21769  0.89071  Biso   1.000  H
  H714     1.0000 0.22172  0.16960  0.90933  Biso   1.000  H
  H715     1.0000 0.29323  0.21311  0.85924  Biso   1.000  H
  H716     1.0000 0.24611  0.25518  0.83303  Biso   1.000  H
  H717     1.0000 0.25391  0.24479  0.83303  Biso   1.000  H
  H718     1.0000 0.20679  0.28691  0.85924  Biso   1.000  H
  H719     1.0000 0.24619  0.04131  0.15141  Biso   1.000  H
  C605     1.0000 0.17783  0.09754  0.15917  Biso   1.000  C
  H720     1.0000 0.15141  0.25379  0.45871  Biso   1.000  H
  C606     1.0000 0.15917  0.32215  0.40248  Biso   1.000  C
  C607     1.0000 0.17783  0.40248  0.34085  Biso   1.000  C
  H721     1.0000 0.24619  0.45871  0.34862  Biso   1.000  H
  C608     1.0000 0.15917  0.17783  0.09754  Biso   1.000  C
  H722     1.0000 0.15141  0.24619  0.04131  Biso   1.000  H
  C609     1.0000 0.19182  0.13062  0.11239  Biso   1.000  C
  C610     1.0000 0.13062  0.11239  0.19182  Biso   1.000  C
  C611     1.0000 0.19182  0.36940  0.38763  Biso   1.000  C
  C612     1.0000 0.11239  0.30816  0.36940  Biso   1.000  C
  C613     1.0000 0.13062  0.38763  0.30816  Biso   1.000  C
  C614     1.0000 0.11239  0.19182  0.13062  Biso   1.000  C
  H723     1.0000 0.22410  0.12100  0.09021  Biso   1.000  H
  C615     1.0000 0.09754  0.15917  0.17783  Biso   1.000  C
  H724     1.0000 0.12100  0.09021  0.22410  Biso   1.000  H
  H725     1.0000 0.22410  0.37902  0.40981  Biso   1.000  H
  C616     1.0000 0.09754  0.34085  0.32215  Biso   1.000  C
  H726     1.0000 0.09021  0.27592  0.37902  Biso   1.000  H
  H727     1.0000 0.12100  0.40981  0.27592  Biso   1.000  H
  H728     1.0000 0.09021  0.22410  0.12100  Biso   1.000  H
  C617     1.0000 0.04742  0.17248  0.21235  Biso   1.000  C
  C618     1.0000 0.04742  0.32754  0.28763  Biso   1.000  C
  N137     1.0000 0.01200  0.21074  0.19912  Biso   1.000  N
  H729     1.0000 0.04131  0.15141  0.24619  Biso   1.000  H
  N138     1.0000 0.01200  0.28928  0.30086  Biso   1.000  N
  H730     1.0000 0.04131  0.34862  0.25379  Biso   1.000  H
  C619     1.0000 0.96556  0.21994  0.23826  Biso   1.000  C
  C620     1.0000 0.96556  0.28008  0.26176  Biso   1.000  C
  H731     1.0000 0.96840  0.19229  0.27033  Biso   1.000  H
  C621     1.0000 0.90691  0.21519  0.21104  Biso   1.000  C
  H732     1.0000 0.96840  0.30769  0.22970  Biso   1.000  H
  C622     1.0000 0.90691  0.28483  0.28899  Biso   1.000  C
  H733     1.0000 0.89673  0.17609  0.19950  Biso   1.000  H
  H734     1.0000 0.90466  0.23801  0.17592  Biso   1.000  H
  C623     1.0000 0.86865  0.23746  0.25981  Biso   1.000  C
  C624     1.0000 0.86865  0.26256  0.24021  Biso   1.000  C
  H735     1.0000 0.89071  0.17702  0.21769  Biso   1.000  H
  H736     1.0000 0.90933  0.22172  0.16960  Biso   1.000  H
  H737     1.0000 0.89673  0.32389  0.30052  Biso   1.000  H
  H738     1.0000 0.90466  0.26201  0.32410  Biso   1.000  H
  H739     1.0000 0.89071  0.32300  0.28229  Biso   1.000  H
  H740     1.0000 0.90933  0.27830  0.33042  Biso   1.000  H
  H741     1.0000 0.83303  0.24611  0.25518  Biso   1.000  H
  H742     1.0000 0.85924  0.20679  0.28691  Biso   1.000  H
  H743     1.0000 0.83303  0.25391  0.24479  Biso   1.000  H
  H744     1.0000 0.85924  0.29323  0.21311  Biso   1.000  H
  Ne1      1.0000 0.25001  0.25001  0.25001  Biso   1.000  Ne
  He1      1.0000 0.17933  0.17933  0.32066  Biso   1.000  He
  He2      1.0000 0.32035  0.32035  0.32035  Biso   1.000  He
  He3      1.0000 0.31687  0.18312  0.18312  Biso   1.000  He
  He4      1.0000 0.18026  0.31974  0.18026  Biso   1.000  He
  Ar1      1.0000 0.25000  0.25000  0.25000  Biso   1.000  Ar
  Ne2      1.0000 0.50001  0.50001  0.50001  Biso   1.000  Ne
  He5      1.0000 0.42915  0.57085  0.57085  Biso   1.000  He
  He6      1.0000 0.56684  0.43316  0.56684  Biso   1.000  He
  He7      1.0000 0.43120  0.43121  0.43120  Biso   1.000  He
  He8      1.0000 0.56664  0.56664  0.43336  Biso   1.000  He
  Ar2      1.0000 0.49999  0.49999  0.49999  Biso   1.000  Ar
  Ne3      1.0000 0.75001  0.75001  0.25001  Biso   1.000  Ne
  He9      1.0000 0.67935  0.67935  0.32066  Biso   1.000  He
  He10     1.0000 0.82034  0.82034  0.32033  Biso   1.000  He
  He11     1.0000 0.81688  0.68313  0.18311  Biso   1.000  He
  He12     1.0000 0.68029  0.81973  0.18027  Biso   1.000  He
  Ar3      1.0000 0.75001  0.75001  0.25001  Biso   1.000  Ar
  Ne4      1.0000 0.75001  0.25001  0.75001  Biso   1.000  Ne
  He13     1.0000 0.67936  0.17934  0.82066  Biso   1.000  He
  He14     1.0000 0.82035  0.32034  0.82035  Biso   1.000  He
  He15     1.0000 0.81688  0.18311  0.68313  Biso   1.000  He
  He16     1.0000 0.68028  0.31973  0.68028  Biso   1.000  He
  Ar4      1.0000 0.75001  0.25001  0.75001  Biso   1.000  Ar
  Ne5      1.0000 0.25001  0.75001  0.75001  Biso   1.000  Ne
  He17     1.0000 0.17934  0.67936  0.82066  Biso   1.000  He
  He18     1.0000 0.32034  0.82035  0.82035  Biso   1.000  He
  He19     1.0000 0.31687  0.68314  0.68314  Biso   1.000  He
  He20     1.0000 0.18027  0.81973  0.68029  Biso   1.000  He
  Ar5      1.0000 0.25001  0.75001  0.75001  Biso   1.000  Ar
  Ne6      1.0000 0.99768  0.50032  0.99901  Biso   1.000  Ne
  He21     1.0000 0.92918  0.57082  0.07083  Biso   1.000  He
  He22     1.0000 0.06684  0.43317  0.06684  Biso   1.000  He
  He23     1.0000 0.06662  0.56661  0.93340  Biso   1.000  He
  He24     1.0000 0.93122  0.43122  0.93122  Biso   1.000  He
  Ar6      1.0000 0.00003  0.49998  0.00003  Biso   1.000  Ar
  Ne7      1.0000 0.99901  0.99768  0.50032  Biso   1.000  Ne
  He25     1.0000 0.92917  0.07085  0.57083  Biso   1.000  He
  He26     1.0000 0.06682  0.93320  0.56682  Biso   1.000  He
  He27     1.0000 0.93125  0.93125  0.43124  Biso   1.000  He
  He28     1.0000 0.06664  0.06664  0.43337  Biso   1.000  He
  Ar7      1.0000 0.00003  0.00003  0.49998  Biso   1.000  Ar
  Ne8      1.0000 0.50032  0.99901  0.99768  Biso   1.000  Ne
  He29     1.0000 0.42916  0.07085  0.07086  Biso   1.000  He
  He30     1.0000 0.56682  0.93318  0.06684  Biso   1.000  He
  He31     1.0000 0.43122  0.93123  0.93122  Biso   1.000  He
  He32     1.0000 0.56663  0.06663  0.93338  Biso   1.000  He
  Ar8      1.0000 0.49998  0.00003  0.00003  Biso   1.000  Ar
