data_image0
_cell_length_a       23.878
_cell_length_b       23.878
_cell_length_c       23.878
_cell_angle_alpha    90
_cell_angle_beta     90
_cell_angle_gamma    90

_symmetry_space_group_name_H-M    "P 1"
_symmetry_int_tables_number       1

loop_
  _symmetry_equiv_pos_as_xyz
  'x, y, z'

loop_
  _atom_site_label
  _atom_site_occupancy
  _atom_site_fract_x
  _atom_site_fract_y
  _atom_site_fract_z
  _atom_site_thermal_displace_type
  _atom_site_B_iso_or_equiv
  _atom_site_type_symbol
  C1       1.0000 0.74998  0.63033  0.74998  Biso   1.000  C
  C2       1.0000 0.78767  0.58874  0.71522  Biso   1.000  C
  C3       1.0000 0.71229  0.58874  0.78474  Biso   1.000  C
  C4       1.0000 0.77201  0.63360  0.70848  Biso   1.000  C
  C5       1.0000 0.72799  0.63360  0.79148  Biso   1.000  C
  H1       1.0000 0.77289  0.65428  0.77490  Biso   1.000  H
  H2       1.0000 0.72707  0.65428  0.72510  Biso   1.000  H
  C6       1.0000 0.76124  0.53057  0.72029  Biso   1.000  C
  H3       1.0000 0.78918  0.60047  0.67548  Biso   1.000  H
  H4       1.0000 0.82628  0.58828  0.73030  Biso   1.000  H
  H5       1.0000 0.83960  0.57811  0.71840  Biso   1.000  H
  C7       1.0000 0.73876  0.53057  0.77971  Biso   1.000  C
  H6       1.0000 0.71078  0.60047  0.82448  Biso   1.000  H
  H7       1.0000 0.67367  0.58828  0.76970  Biso   1.000  H
  H8       1.0000 0.66040  0.57811  0.78160  Biso   1.000  H
  C8       1.0000 0.80367  0.57890  0.69759  Biso   1.000  C
  H9       1.0000 0.79848  0.66551  0.70910  Biso   1.000  H
  H10      1.0000 0.74428  0.64017  0.67841  Biso   1.000  H
  C9       1.0000 0.69629  0.57890  0.80237  Biso   1.000  C
  H11      1.0000 0.70148  0.66551  0.79090  Biso   1.000  H
  H12      1.0000 0.75567  0.64017  0.82159  Biso   1.000  H
  N1       1.0000 0.79923  0.48404  0.71091  Biso   1.000  N
  H13      1.0000 0.72921  0.52768  0.69348  Biso   1.000  H
  N2       1.0000 0.70077  0.48404  0.78905  Biso   1.000  N
  H14      1.0000 0.77079  0.52768  0.80647  Biso   1.000  H
  H15      1.0000 0.81150  0.57400  0.65709  Biso   1.000  H
  H16      1.0000 0.68850  0.57400  0.84287  Biso   1.000  H
  C10      1.0000 0.78683  0.44991  0.67271  Biso   1.000  C
  C11      1.0000 0.71317  0.44991  0.82725  Biso   1.000  C
  C12      1.0000 0.82092  0.40045  0.65981  Biso   1.000  C
  H17      1.0000 0.75400  0.45640  0.65127  Biso   1.000  H
  H18      1.0000 0.74600  0.45640  0.84869  Biso   1.000  H
  C13      1.0000 0.67904  0.40045  0.84015  Biso   1.000  C
  C14      1.0000 0.80765  0.36753  0.61370  Biso   1.000  C
  C15      1.0000 0.86753  0.38630  0.69235  Biso   1.000  C
  C16      1.0000 0.63242  0.38630  0.80765  Biso   1.000  C
  C17      1.0000 0.69235  0.36753  0.88626  Biso   1.000  C
  C18      1.0000 0.84015  0.32096  0.59951  Biso   1.000  C
  H19      1.0000 0.77599  0.37687  0.59151  Biso   1.000  H
  C19      1.0000 0.90045  0.34015  0.67904  Biso   1.000  C
  H20      1.0000 0.87687  0.40849  0.72397  Biso   1.000  H
  C20      1.0000 0.59951  0.34015  0.82092  Biso   1.000  C
  H21      1.0000 0.62308  0.40849  0.77599  Biso   1.000  H
  C21      1.0000 0.65981  0.32096  0.90045  Biso   1.000  C
  H22      1.0000 0.72397  0.37687  0.90849  Biso   1.000  H
  C22      1.0000 0.82725  0.28683  0.55009  Biso   1.000  C
  C23      1.0000 0.88626  0.30765  0.63242  Biso   1.000  C
  C24      1.0000 0.94991  0.32725  0.71317  Biso   1.000  C
  C25      1.0000 0.55009  0.32725  0.78683  Biso   1.000  C
  C26      1.0000 0.61370  0.30765  0.86753  Biso   1.000  C
  C27      1.0000 0.67271  0.28683  0.94991  Biso   1.000  C
  N3       1.0000 0.78905  0.29923  0.51596  Biso   1.000  N
  H23      1.0000 0.84869  0.25400  0.54360  Biso   1.000  H
  H24      1.0000 0.90849  0.27599  0.62308  Biso   1.000  H
  N4       1.0000 0.98404  0.28905  0.70077  Biso   1.000  N
  H25      1.0000 0.95640  0.34869  0.74600  Biso   1.000  H
  N5       1.0000 0.51596  0.28905  0.79923  Biso   1.000  N
  H26      1.0000 0.54360  0.34869  0.75400  Biso   1.000  H
  H27      1.0000 0.59151  0.27599  0.87687  Biso   1.000  H
  N6       1.0000 0.71091  0.29923  0.98404  Biso   1.000  N
  H28      1.0000 0.65127  0.25400  0.95640  Biso   1.000  H
  C28      1.0000 0.77971  0.26124  0.46943  Biso   1.000  C
  C29      1.0000 0.03057  0.27971  0.73876  Biso   1.000  C
  C30      1.0000 0.46943  0.27971  0.76124  Biso   1.000  C
  C31      1.0000 0.72029  0.26124  0.03057  Biso   1.000  C
  C32      1.0000 0.72029  0.23876  0.46943  Biso   1.000  C
  C33      1.0000 0.78474  0.28771  0.41126  Biso   1.000  C
  C34      1.0000 0.80237  0.30371  0.42110  Biso   1.000  C
  H29      1.0000 0.80647  0.22921  0.47228  Biso   1.000  H
  C35      1.0000 0.03057  0.22029  0.76124  Biso   1.000  C
  H30      1.0000 0.02768  0.30647  0.77079  Biso   1.000  H
  C36      1.0000 0.08874  0.28474  0.71229  Biso   1.000  C
  C37      1.0000 0.07890  0.30241  0.69629  Biso   1.000  C
  C38      1.0000 0.46943  0.22029  0.73876  Biso   1.000  C
  H31      1.0000 0.47228  0.30647  0.72921  Biso   1.000  H
  C39      1.0000 0.41126  0.28474  0.78767  Biso   1.000  C
  C40      1.0000 0.42110  0.30241  0.80367  Biso   1.000  C
  C41      1.0000 0.77971  0.23876  0.03057  Biso   1.000  C
  H32      1.0000 0.69348  0.22921  0.02768  Biso   1.000  H
  C42      1.0000 0.71522  0.28771  0.08874  Biso   1.000  C
  C43      1.0000 0.69759  0.30371  0.07890  Biso   1.000  C
  C44      1.0000 0.71522  0.21229  0.41126  Biso   1.000  C
  C45      1.0000 0.69759  0.19629  0.42110  Biso   1.000  C
  N7       1.0000 0.71091  0.20077  0.51596  Biso   1.000  N
  H33      1.0000 0.69348  0.27079  0.47228  Biso   1.000  H
  C46      1.0000 0.74998  0.24998  0.36967  Biso   1.000  C
  C47      1.0000 0.79148  0.27201  0.36640  Biso   1.000  C
  H34      1.0000 0.82448  0.28918  0.39949  Biso   1.000  H
  H35      1.0000 0.76970  0.32628  0.41168  Biso   1.000  H
  H36      1.0000 0.78160  0.33960  0.42189  Biso   1.000  H
  H37      1.0000 0.84287  0.31150  0.42600  Biso   1.000  H
  N8       1.0000 0.98404  0.21095  0.79923  Biso   1.000  N
  H38      1.0000 0.02768  0.19348  0.72921  Biso   1.000  H
  C48      1.0000 0.08874  0.21522  0.78767  Biso   1.000  C
  C49      1.0000 0.07890  0.19759  0.80367  Biso   1.000  C
  C50      1.0000 0.13033  0.24998  0.74998  Biso   1.000  C
  H39      1.0000 0.10047  0.32448  0.71078  Biso   1.000  H
  H40      1.0000 0.08828  0.26970  0.67367  Biso   1.000  H
  H41      1.0000 0.07811  0.28160  0.66040  Biso   1.000  H
  C51      1.0000 0.13360  0.29148  0.72799  Biso   1.000  C
  H42      1.0000 0.07400  0.34291  0.68850  Biso   1.000  H
  N9       1.0000 0.51596  0.21095  0.70077  Biso   1.000  N
  H43      1.0000 0.47228  0.19348  0.77079  Biso   1.000  H
  C52      1.0000 0.41126  0.21522  0.71229  Biso   1.000  C
  C53      1.0000 0.42110  0.19759  0.69629  Biso   1.000  C
  C54      1.0000 0.36967  0.24998  0.74998  Biso   1.000  C
  H44      1.0000 0.39949  0.32448  0.78918  Biso   1.000  H
  H45      1.0000 0.41168  0.26970  0.82628  Biso   1.000  H
  H46      1.0000 0.42189  0.28160  0.83960  Biso   1.000  H
  C55      1.0000 0.36640  0.29148  0.77201  Biso   1.000  C
  H47      1.0000 0.42600  0.34291  0.81150  Biso   1.000  H
  N10      1.0000 0.78905  0.20077  0.98404  Biso   1.000  N
  H48      1.0000 0.80647  0.27079  0.02768  Biso   1.000  H
  C56      1.0000 0.78474  0.21229  0.08874  Biso   1.000  C
  C57      1.0000 0.80237  0.19629  0.07890  Biso   1.000  C
  C58      1.0000 0.74998  0.24998  0.13033  Biso   1.000  C
  H49      1.0000 0.67548  0.28918  0.10047  Biso   1.000  H
  H50      1.0000 0.73030  0.32628  0.08828  Biso   1.000  H
  H51      1.0000 0.71840  0.33960  0.07811  Biso   1.000  H
  C59      1.0000 0.70848  0.27201  0.13360  Biso   1.000  C
  H52      1.0000 0.65709  0.31150  0.07400  Biso   1.000  H
  C60      1.0000 0.70848  0.22799  0.36640  Biso   1.000  C
  H53      1.0000 0.67548  0.21078  0.39949  Biso   1.000  H
  H54      1.0000 0.73030  0.17372  0.41168  Biso   1.000  H
  H55      1.0000 0.71840  0.16040  0.42189  Biso   1.000  H
  H56      1.0000 0.65709  0.18850  0.42600  Biso   1.000  H
  C61      1.0000 0.67271  0.21317  0.55009  Biso   1.000  C
  H57      1.0000 0.72510  0.27289  0.34567  Biso   1.000  H
  H58      1.0000 0.77490  0.22711  0.34567  Biso   1.000  H
  H59      1.0000 0.79090  0.29848  0.33449  Biso   1.000  H
  H60      1.0000 0.82159  0.24428  0.35979  Biso   1.000  H
  C62      1.0000 0.94991  0.17271  0.78683  Biso   1.000  C
  H61      1.0000 0.10047  0.17552  0.78918  Biso   1.000  H
  H62      1.0000 0.08828  0.23030  0.82628  Biso   1.000  H
  H63      1.0000 0.07811  0.21840  0.83960  Biso   1.000  H
  C63      1.0000 0.13360  0.20848  0.77201  Biso   1.000  C
  H64      1.0000 0.07400  0.15709  0.81150  Biso   1.000  H
  H65      1.0000 0.15428  0.27490  0.77289  Biso   1.000  H
  H66      1.0000 0.15428  0.22510  0.72707  Biso   1.000  H
  H67      1.0000 0.16551  0.29090  0.70148  Biso   1.000  H
  H68      1.0000 0.14021  0.32159  0.75567  Biso   1.000  H
  C64      1.0000 0.55009  0.17271  0.71317  Biso   1.000  C
  H69      1.0000 0.39949  0.17552  0.71078  Biso   1.000  H
  H70      1.0000 0.41168  0.23030  0.67367  Biso   1.000  H
  H71      1.0000 0.42189  0.21840  0.66040  Biso   1.000  H
  C65      1.0000 0.36640  0.20848  0.72799  Biso   1.000  C
  H72      1.0000 0.42600  0.15709  0.68850  Biso   1.000  H
  H73      1.0000 0.34567  0.27490  0.72707  Biso   1.000  H
  H74      1.0000 0.34567  0.22510  0.77289  Biso   1.000  H
  H75      1.0000 0.33449  0.29090  0.79848  Biso   1.000  H
  H76      1.0000 0.35979  0.32159  0.74428  Biso   1.000  H
  C66      1.0000 0.82725  0.21317  0.94991  Biso   1.000  C
  H77      1.0000 0.82448  0.21078  0.10047  Biso   1.000  H
  H78      1.0000 0.76970  0.17372  0.08828  Biso   1.000  H
  H79      1.0000 0.78160  0.16040  0.07811  Biso   1.000  H
  C67      1.0000 0.79148  0.22799  0.13360  Biso   1.000  C
  H80      1.0000 0.84287  0.18850  0.07400  Biso   1.000  H
  H81      1.0000 0.72510  0.22711  0.15428  Biso   1.000  H
  H82      1.0000 0.77490  0.27289  0.15428  Biso   1.000  H
  H83      1.0000 0.70910  0.29848  0.16551  Biso   1.000  H
  H84      1.0000 0.67841  0.24428  0.14021  Biso   1.000  H
  H85      1.0000 0.70910  0.20148  0.33449  Biso   1.000  H
  H86      1.0000 0.67841  0.25572  0.35979  Biso   1.000  H
  H87      1.0000 0.65127  0.24600  0.54360  Biso   1.000  H
  C68      1.0000 0.65981  0.17904  0.59951  Biso   1.000  C
  H88      1.0000 0.95640  0.15131  0.75400  Biso   1.000  H
  C69      1.0000 0.90045  0.15985  0.82092  Biso   1.000  C
  H89      1.0000 0.16551  0.20910  0.79848  Biso   1.000  H
  H90      1.0000 0.14021  0.17841  0.74428  Biso   1.000  H
  C70      1.0000 0.59951  0.15985  0.67904  Biso   1.000  C
  H91      1.0000 0.54360  0.15131  0.74600  Biso   1.000  H
  H92      1.0000 0.33449  0.20910  0.70148  Biso   1.000  H
  H93      1.0000 0.35979  0.17841  0.75567  Biso   1.000  H
  C71      1.0000 0.84015  0.17904  0.90045  Biso   1.000  C
  H94      1.0000 0.84869  0.24600  0.95640  Biso   1.000  H
  H95      1.0000 0.79090  0.20148  0.16551  Biso   1.000  H
  H96      1.0000 0.82159  0.25572  0.14021  Biso   1.000  H
  C72      1.0000 0.69235  0.13242  0.61370  Biso   1.000  C
  C73      1.0000 0.61370  0.19235  0.63242  Biso   1.000  C
  C74      1.0000 0.86753  0.11370  0.80765  Biso   1.000  C
  C75      1.0000 0.88626  0.19235  0.86753  Biso   1.000  C
  C76      1.0000 0.63242  0.11370  0.69235  Biso   1.000  C
  C77      1.0000 0.80765  0.13242  0.88626  Biso   1.000  C
  C78      1.0000 0.67904  0.09955  0.65981  Biso   1.000  C
  H97      1.0000 0.72397  0.12308  0.59151  Biso   1.000  H
  H98      1.0000 0.59151  0.22401  0.62308  Biso   1.000  H
  C79      1.0000 0.82092  0.09955  0.84015  Biso   1.000  C
  H99      1.0000 0.87687  0.09151  0.77599  Biso   1.000  H
  H100     1.0000 0.90849  0.22401  0.87687  Biso   1.000  H
  H101     1.0000 0.62308  0.09151  0.72397  Biso   1.000  H
  H102     1.0000 0.77599  0.12308  0.90849  Biso   1.000  H
  C80      1.0000 0.71317  0.05009  0.67271  Biso   1.000  C
  C81      1.0000 0.78683  0.05009  0.82725  Biso   1.000  C
  N11      1.0000 0.70077  0.01596  0.71091  Biso   1.000  N
  H103     1.0000 0.74600  0.04360  0.65127  Biso   1.000  H
  N12      1.0000 0.79923  0.01596  0.78905  Biso   1.000  N
  H104     1.0000 0.75400  0.04360  0.84869  Biso   1.000  H
  C82      1.0000 0.73876  0.96943  0.72029  Biso   1.000  C
  C83      1.0000 0.76124  0.96943  0.77971  Biso   1.000  C
  H105     1.0000 0.77079  0.97232  0.69348  Biso   1.000  H
  C84      1.0000 0.71229  0.91126  0.71522  Biso   1.000  C
  C85      1.0000 0.69629  0.92110  0.69759  Biso   1.000  C
  H106     1.0000 0.72921  0.97232  0.80647  Biso   1.000  H
  C86      1.0000 0.78767  0.91126  0.78474  Biso   1.000  C
  C87      1.0000 0.80367  0.92110  0.80237  Biso   1.000  C
  H107     1.0000 0.71078  0.89949  0.67548  Biso   1.000  H
  H108     1.0000 0.67367  0.91172  0.73030  Biso   1.000  H
  C88      1.0000 0.74998  0.86967  0.74998  Biso   1.000  C
  H109     1.0000 0.66040  0.92189  0.71840  Biso   1.000  H
  C89      1.0000 0.72799  0.86640  0.70848  Biso   1.000  C
  H110     1.0000 0.68850  0.92600  0.65709  Biso   1.000  H
  H111     1.0000 0.78918  0.89949  0.82448  Biso   1.000  H
  H112     1.0000 0.82628  0.91172  0.76970  Biso   1.000  H
  H113     1.0000 0.83960  0.92189  0.78160  Biso   1.000  H
  C90      1.0000 0.77201  0.86640  0.79148  Biso   1.000  C
  H114     1.0000 0.81150  0.92600  0.84287  Biso   1.000  H
  H115     1.0000 0.77289  0.84572  0.72510  Biso   1.000  H
  H116     1.0000 0.72707  0.84572  0.77490  Biso   1.000  H
  H117     1.0000 0.70148  0.83449  0.70910  Biso   1.000  H
  H118     1.0000 0.75567  0.85979  0.67841  Biso   1.000  H
  H119     1.0000 0.79848  0.83449  0.79090  Biso   1.000  H
  H120     1.0000 0.74428  0.85979  0.82159  Biso   1.000  H
  C91      1.0000 0.74998  0.74998  0.63033  Biso   1.000  C
  C92      1.0000 0.71522  0.78767  0.58874  Biso   1.000  C
  C93      1.0000 0.78474  0.71229  0.58874  Biso   1.000  C
  C94      1.0000 0.70848  0.77201  0.63360  Biso   1.000  C
  C95      1.0000 0.79148  0.72799  0.63360  Biso   1.000  C
  H121     1.0000 0.72510  0.72707  0.65428  Biso   1.000  H
  H122     1.0000 0.77490  0.77289  0.65428  Biso   1.000  H
  C96      1.0000 0.72029  0.76124  0.53057  Biso   1.000  C
  H123     1.0000 0.67548  0.78918  0.60047  Biso   1.000  H
  H124     1.0000 0.73030  0.82628  0.58828  Biso   1.000  H
  H125     1.0000 0.71840  0.83960  0.57811  Biso   1.000  H
  C97      1.0000 0.77971  0.73876  0.53057  Biso   1.000  C
  H126     1.0000 0.82448  0.71078  0.60047  Biso   1.000  H
  H127     1.0000 0.76970  0.67367  0.58828  Biso   1.000  H
  H128     1.0000 0.78160  0.66040  0.57811  Biso   1.000  H
  C98      1.0000 0.69759  0.80367  0.57890  Biso   1.000  C
  H129     1.0000 0.70910  0.79848  0.66551  Biso   1.000  H
  H130     1.0000 0.67841  0.74428  0.64017  Biso   1.000  H
  C99      1.0000 0.80237  0.69629  0.57890  Biso   1.000  C
  H131     1.0000 0.79090  0.70148  0.66551  Biso   1.000  H
  H132     1.0000 0.82159  0.75567  0.64017  Biso   1.000  H
  N13      1.0000 0.71091  0.79923  0.48404  Biso   1.000  N
  H133     1.0000 0.69348  0.72921  0.52768  Biso   1.000  H
  N14      1.0000 0.78905  0.70077  0.48404  Biso   1.000  N
  H134     1.0000 0.80647  0.77079  0.52768  Biso   1.000  H
  H135     1.0000 0.65709  0.81150  0.57400  Biso   1.000  H
  H136     1.0000 0.84287  0.68850  0.57400  Biso   1.000  H
  C100     1.0000 0.67271  0.78683  0.44991  Biso   1.000  C
  C101     1.0000 0.82725  0.71317  0.44991  Biso   1.000  C
  C102     1.0000 0.65981  0.82092  0.40045  Biso   1.000  C
  H137     1.0000 0.65127  0.75400  0.45640  Biso   1.000  H
  H138     1.0000 0.84869  0.74600  0.45640  Biso   1.000  H
  C103     1.0000 0.84015  0.67904  0.40045  Biso   1.000  C
  C104     1.0000 0.61370  0.80765  0.36753  Biso   1.000  C
  C105     1.0000 0.69235  0.86753  0.38630  Biso   1.000  C
  C106     1.0000 0.80765  0.63242  0.38630  Biso   1.000  C
  C107     1.0000 0.88626  0.69235  0.36753  Biso   1.000  C
  C108     1.0000 0.59951  0.84015  0.32096  Biso   1.000  C
  H139     1.0000 0.59151  0.77599  0.37687  Biso   1.000  H
  C109     1.0000 0.67904  0.90045  0.34015  Biso   1.000  C
  H140     1.0000 0.72397  0.87687  0.40849  Biso   1.000  H
  C110     1.0000 0.82092  0.59951  0.34015  Biso   1.000  C
  H141     1.0000 0.77599  0.62308  0.40849  Biso   1.000  H
  C111     1.0000 0.90045  0.65981  0.32096  Biso   1.000  C
  H142     1.0000 0.90849  0.72397  0.37687  Biso   1.000  H
  C112     1.0000 0.55009  0.82725  0.28683  Biso   1.000  C
  C113     1.0000 0.63242  0.88626  0.30765  Biso   1.000  C
  C114     1.0000 0.71317  0.94991  0.32725  Biso   1.000  C
  C115     1.0000 0.78683  0.55009  0.32725  Biso   1.000  C
  C116     1.0000 0.86753  0.61370  0.30765  Biso   1.000  C
  C117     1.0000 0.94991  0.67271  0.28683  Biso   1.000  C
  N15      1.0000 0.51596  0.78905  0.29923  Biso   1.000  N
  H143     1.0000 0.54360  0.84869  0.25400  Biso   1.000  H
  H144     1.0000 0.62308  0.90849  0.27599  Biso   1.000  H
  N16      1.0000 0.70077  0.98404  0.28905  Biso   1.000  N
  H145     1.0000 0.74600  0.95640  0.34869  Biso   1.000  H
  N17      1.0000 0.79923  0.51596  0.28905  Biso   1.000  N
  H146     1.0000 0.75400  0.54360  0.34869  Biso   1.000  H
  H147     1.0000 0.87687  0.59151  0.27599  Biso   1.000  H
  N18      1.0000 0.98404  0.71091  0.29923  Biso   1.000  N
  H148     1.0000 0.95640  0.65127  0.25400  Biso   1.000  H
  C118     1.0000 0.46943  0.77971  0.26124  Biso   1.000  C
  C119     1.0000 0.73876  0.03057  0.27971  Biso   1.000  C
  C120     1.0000 0.76124  0.46943  0.27971  Biso   1.000  C
  C121     1.0000 0.03057  0.72029  0.26124  Biso   1.000  C
  C122     1.0000 0.46943  0.72029  0.23876  Biso   1.000  C
  C123     1.0000 0.41126  0.78474  0.28771  Biso   1.000  C
  C124     1.0000 0.42110  0.80237  0.30371  Biso   1.000  C
  H149     1.0000 0.47228  0.80647  0.22921  Biso   1.000  H
  C125     1.0000 0.76124  0.03057  0.22029  Biso   1.000  C
  H150     1.0000 0.77079  0.02768  0.30647  Biso   1.000  H
  C126     1.0000 0.71229  0.08874  0.28474  Biso   1.000  C
  C127     1.0000 0.69629  0.07890  0.30241  Biso   1.000  C
  C128     1.0000 0.73876  0.46943  0.22029  Biso   1.000  C
  H151     1.0000 0.72921  0.47228  0.30647  Biso   1.000  H
  C129     1.0000 0.78767  0.41126  0.28474  Biso   1.000  C
  C130     1.0000 0.80367  0.42110  0.30241  Biso   1.000  C
  C131     1.0000 0.03057  0.77971  0.23876  Biso   1.000  C
  H152     1.0000 0.02768  0.69348  0.22921  Biso   1.000  H
  C132     1.0000 0.08874  0.71522  0.28771  Biso   1.000  C
  C133     1.0000 0.07890  0.69759  0.30371  Biso   1.000  C
  C134     1.0000 0.41126  0.71522  0.21229  Biso   1.000  C
  C135     1.0000 0.42110  0.69759  0.19629  Biso   1.000  C
  N19      1.0000 0.51596  0.71091  0.20077  Biso   1.000  N
  H153     1.0000 0.47228  0.69348  0.27079  Biso   1.000  H
  C136     1.0000 0.36967  0.74998  0.24998  Biso   1.000  C
  C137     1.0000 0.36640  0.79148  0.27201  Biso   1.000  C
  H154     1.0000 0.39949  0.82448  0.28918  Biso   1.000  H
  H155     1.0000 0.41168  0.76970  0.32628  Biso   1.000  H
  H156     1.0000 0.42189  0.78160  0.33960  Biso   1.000  H
  H157     1.0000 0.42600  0.84287  0.31150  Biso   1.000  H
  N20      1.0000 0.79923  0.98404  0.21095  Biso   1.000  N
  H158     1.0000 0.72921  0.02768  0.19348  Biso   1.000  H
  C138     1.0000 0.78767  0.08874  0.21522  Biso   1.000  C
  C139     1.0000 0.80367  0.07890  0.19759  Biso   1.000  C
  H159     1.0000 0.71078  0.10047  0.32448  Biso   1.000  H
  H160     1.0000 0.67367  0.08828  0.26970  Biso   1.000  H
  C140     1.0000 0.74998  0.13033  0.24998  Biso   1.000  C
  H161     1.0000 0.66040  0.07811  0.28160  Biso   1.000  H
  C141     1.0000 0.72799  0.13360  0.29148  Biso   1.000  C
  H162     1.0000 0.68850  0.07400  0.34291  Biso   1.000  H
  N21      1.0000 0.70077  0.51596  0.21095  Biso   1.000  N
  H163     1.0000 0.77079  0.47228  0.19348  Biso   1.000  H
  C142     1.0000 0.71229  0.41126  0.21522  Biso   1.000  C
  C143     1.0000 0.69629  0.42110  0.19759  Biso   1.000  C
  C144     1.0000 0.74998  0.36967  0.24998  Biso   1.000  C
  H164     1.0000 0.78918  0.39949  0.32448  Biso   1.000  H
  H165     1.0000 0.82628  0.41168  0.26970  Biso   1.000  H
  H166     1.0000 0.83960  0.42189  0.28160  Biso   1.000  H
  C145     1.0000 0.77201  0.36640  0.29148  Biso   1.000  C
  H167     1.0000 0.81150  0.42600  0.34291  Biso   1.000  H
  N22      1.0000 0.98404  0.78905  0.20077  Biso   1.000  N
  H168     1.0000 0.02768  0.80647  0.27079  Biso   1.000  H
  C146     1.0000 0.08874  0.78474  0.21229  Biso   1.000  C
  C147     1.0000 0.07890  0.80237  0.19629  Biso   1.000  C
  C148     1.0000 0.13033  0.74998  0.24998  Biso   1.000  C
  H169     1.0000 0.10047  0.67548  0.28918  Biso   1.000  H
  H170     1.0000 0.08828  0.73030  0.32628  Biso   1.000  H
  H171     1.0000 0.07811  0.71840  0.33960  Biso   1.000  H
  C149     1.0000 0.13360  0.70848  0.27201  Biso   1.000  C
  H172     1.0000 0.07400  0.65709  0.31150  Biso   1.000  H
  C150     1.0000 0.36640  0.70848  0.22799  Biso   1.000  C
  H173     1.0000 0.39949  0.67548  0.21078  Biso   1.000  H
  H174     1.0000 0.41168  0.73030  0.17372  Biso   1.000  H
  H175     1.0000 0.42189  0.71840  0.16040  Biso   1.000  H
  H176     1.0000 0.42600  0.65709  0.18850  Biso   1.000  H
  C151     1.0000 0.55009  0.67271  0.21317  Biso   1.000  C
  H177     1.0000 0.34567  0.72510  0.27289  Biso   1.000  H
  H178     1.0000 0.34567  0.77490  0.22711  Biso   1.000  H
  H179     1.0000 0.33449  0.79090  0.29848  Biso   1.000  H
  H180     1.0000 0.35979  0.82159  0.24428  Biso   1.000  H
  C152     1.0000 0.78683  0.94991  0.17271  Biso   1.000  C
  H181     1.0000 0.78918  0.10047  0.17552  Biso   1.000  H
  H182     1.0000 0.82628  0.08828  0.23030  Biso   1.000  H
  H183     1.0000 0.83960  0.07811  0.21840  Biso   1.000  H
  C153     1.0000 0.77201  0.13360  0.20848  Biso   1.000  C
  H184     1.0000 0.81150  0.07400  0.15709  Biso   1.000  H
  H185     1.0000 0.77289  0.15428  0.27490  Biso   1.000  H
  H186     1.0000 0.72707  0.15428  0.22510  Biso   1.000  H
  H187     1.0000 0.70148  0.16551  0.29090  Biso   1.000  H
  H188     1.0000 0.75567  0.14021  0.32159  Biso   1.000  H
  C154     1.0000 0.71317  0.55009  0.17271  Biso   1.000  C
  H189     1.0000 0.71078  0.39949  0.17552  Biso   1.000  H
  H190     1.0000 0.67367  0.41168  0.23030  Biso   1.000  H
  H191     1.0000 0.66040  0.42189  0.21840  Biso   1.000  H
  C155     1.0000 0.72799  0.36640  0.20848  Biso   1.000  C
  H192     1.0000 0.68850  0.42600  0.15709  Biso   1.000  H
  H193     1.0000 0.77289  0.34567  0.22510  Biso   1.000  H
  H194     1.0000 0.72707  0.34567  0.27490  Biso   1.000  H
  H195     1.0000 0.79848  0.33449  0.29090  Biso   1.000  H
  H196     1.0000 0.74428  0.35979  0.32159  Biso   1.000  H
  C156     1.0000 0.94991  0.82725  0.21317  Biso   1.000  C
  H197     1.0000 0.10047  0.82448  0.21078  Biso   1.000  H
  H198     1.0000 0.08828  0.76970  0.17372  Biso   1.000  H
  H199     1.0000 0.07811  0.78160  0.16040  Biso   1.000  H
  C157     1.0000 0.13360  0.79148  0.22799  Biso   1.000  C
  H200     1.0000 0.07400  0.84287  0.18850  Biso   1.000  H
  H201     1.0000 0.15428  0.72510  0.22711  Biso   1.000  H
  H202     1.0000 0.15428  0.77490  0.27289  Biso   1.000  H
  H203     1.0000 0.16551  0.70910  0.29848  Biso   1.000  H
  H204     1.0000 0.14021  0.67841  0.24428  Biso   1.000  H
  H205     1.0000 0.33449  0.70910  0.20148  Biso   1.000  H
  H206     1.0000 0.35979  0.67841  0.25572  Biso   1.000  H
  H207     1.0000 0.54360  0.65127  0.24600  Biso   1.000  H
  C158     1.0000 0.59951  0.65981  0.17904  Biso   1.000  C
  H208     1.0000 0.75400  0.95640  0.15131  Biso   1.000  H
  C159     1.0000 0.82092  0.90045  0.15985  Biso   1.000  C
  H209     1.0000 0.79848  0.16551  0.20910  Biso   1.000  H
  H210     1.0000 0.74428  0.14021  0.17841  Biso   1.000  H
  C160     1.0000 0.67904  0.59951  0.15985  Biso   1.000  C
  H211     1.0000 0.74600  0.54360  0.15131  Biso   1.000  H
  H212     1.0000 0.70148  0.33449  0.20910  Biso   1.000  H
  H213     1.0000 0.75567  0.35979  0.17841  Biso   1.000  H
  C161     1.0000 0.90045  0.84015  0.17904  Biso   1.000  C
  H214     1.0000 0.95640  0.84869  0.24600  Biso   1.000  H
  H215     1.0000 0.16551  0.79090  0.20148  Biso   1.000  H
  H216     1.0000 0.14021  0.82159  0.25572  Biso   1.000  H
  C162     1.0000 0.61370  0.69235  0.13242  Biso   1.000  C
  C163     1.0000 0.63242  0.61370  0.19235  Biso   1.000  C
  C164     1.0000 0.80765  0.86753  0.11370  Biso   1.000  C
  C165     1.0000 0.86753  0.88626  0.19235  Biso   1.000  C
  C166     1.0000 0.69235  0.63242  0.11370  Biso   1.000  C
  C167     1.0000 0.88626  0.80765  0.13242  Biso   1.000  C
  C168     1.0000 0.65981  0.67904  0.09955  Biso   1.000  C
  H217     1.0000 0.59151  0.72397  0.12308  Biso   1.000  H
  H218     1.0000 0.62308  0.59151  0.22401  Biso   1.000  H
  C169     1.0000 0.84015  0.82092  0.09955  Biso   1.000  C
  H219     1.0000 0.77599  0.87687  0.09151  Biso   1.000  H
  H220     1.0000 0.87687  0.90849  0.22401  Biso   1.000  H
  H221     1.0000 0.72397  0.62308  0.09151  Biso   1.000  H
  H222     1.0000 0.90849  0.77599  0.12308  Biso   1.000  H
  C170     1.0000 0.67271  0.71317  0.05009  Biso   1.000  C
  C171     1.0000 0.82725  0.78683  0.05009  Biso   1.000  C
  N23      1.0000 0.71091  0.70077  0.01596  Biso   1.000  N
  H223     1.0000 0.65127  0.74600  0.04360  Biso   1.000  H
  N24      1.0000 0.78905  0.79923  0.01596  Biso   1.000  N
  H224     1.0000 0.84869  0.75400  0.04360  Biso   1.000  H
  C172     1.0000 0.72029  0.73876  0.96943  Biso   1.000  C
  C173     1.0000 0.77971  0.76124  0.96943  Biso   1.000  C
  H225     1.0000 0.69348  0.77079  0.97232  Biso   1.000  H
  C174     1.0000 0.71522  0.71229  0.91126  Biso   1.000  C
  C175     1.0000 0.69759  0.69629  0.92110  Biso   1.000  C
  H226     1.0000 0.80647  0.72921  0.97232  Biso   1.000  H
  C176     1.0000 0.78474  0.78767  0.91126  Biso   1.000  C
  C177     1.0000 0.80237  0.80367  0.92110  Biso   1.000  C
  H227     1.0000 0.67548  0.71078  0.89949  Biso   1.000  H
  H228     1.0000 0.73030  0.67367  0.91172  Biso   1.000  H
  C178     1.0000 0.74998  0.74998  0.86967  Biso   1.000  C
  H229     1.0000 0.71840  0.66040  0.92189  Biso   1.000  H
  C179     1.0000 0.70848  0.72799  0.86640  Biso   1.000  C
  H230     1.0000 0.65709  0.68850  0.92600  Biso   1.000  H
  H231     1.0000 0.82448  0.78918  0.89949  Biso   1.000  H
  H232     1.0000 0.76970  0.82628  0.91172  Biso   1.000  H
  H233     1.0000 0.78160  0.83960  0.92189  Biso   1.000  H
  C180     1.0000 0.79148  0.77201  0.86640  Biso   1.000  C
  H234     1.0000 0.84287  0.81150  0.92600  Biso   1.000  H
  H235     1.0000 0.72510  0.77289  0.84572  Biso   1.000  H
  H236     1.0000 0.77490  0.72707  0.84572  Biso   1.000  H
  H237     1.0000 0.70910  0.70148  0.83449  Biso   1.000  H
  H238     1.0000 0.67841  0.75567  0.85979  Biso   1.000  H
  H239     1.0000 0.79090  0.79848  0.83449  Biso   1.000  H
  H240     1.0000 0.82159  0.74428  0.85979  Biso   1.000  H
  C181     1.0000 0.63033  0.74998  0.74998  Biso   1.000  C
  C182     1.0000 0.58874  0.71522  0.78767  Biso   1.000  C
  C183     1.0000 0.58874  0.78474  0.71229  Biso   1.000  C
  C184     1.0000 0.63360  0.70848  0.77201  Biso   1.000  C
  C185     1.0000 0.63360  0.79148  0.72799  Biso   1.000  C
  H241     1.0000 0.65428  0.72510  0.72707  Biso   1.000  H
  H242     1.0000 0.65428  0.77490  0.77289  Biso   1.000  H
  C186     1.0000 0.53057  0.72029  0.76124  Biso   1.000  C
  H243     1.0000 0.60047  0.67548  0.78918  Biso   1.000  H
  H244     1.0000 0.58828  0.73030  0.82628  Biso   1.000  H
  H245     1.0000 0.57811  0.71840  0.83960  Biso   1.000  H
  C187     1.0000 0.53057  0.77971  0.73876  Biso   1.000  C
  H246     1.0000 0.60047  0.82448  0.71078  Biso   1.000  H
  H247     1.0000 0.58828  0.76970  0.67367  Biso   1.000  H
  H248     1.0000 0.57811  0.78160  0.66040  Biso   1.000  H
  C188     1.0000 0.57890  0.69759  0.80367  Biso   1.000  C
  H249     1.0000 0.66551  0.70910  0.79848  Biso   1.000  H
  H250     1.0000 0.64017  0.67841  0.74428  Biso   1.000  H
  C189     1.0000 0.57890  0.80237  0.69629  Biso   1.000  C
  H251     1.0000 0.66551  0.79090  0.70148  Biso   1.000  H
  H252     1.0000 0.64017  0.82159  0.75567  Biso   1.000  H
  N25      1.0000 0.48404  0.71091  0.79923  Biso   1.000  N
  H253     1.0000 0.52768  0.69348  0.72921  Biso   1.000  H
  N26      1.0000 0.48404  0.78905  0.70077  Biso   1.000  N
  H254     1.0000 0.52768  0.80647  0.77079  Biso   1.000  H
  H255     1.0000 0.57400  0.65709  0.81150  Biso   1.000  H
  H256     1.0000 0.57400  0.84287  0.68850  Biso   1.000  H
  C190     1.0000 0.44991  0.67271  0.78683  Biso   1.000  C
  C191     1.0000 0.44991  0.82725  0.71317  Biso   1.000  C
  C192     1.0000 0.40045  0.65981  0.82092  Biso   1.000  C
  H257     1.0000 0.45640  0.65127  0.75400  Biso   1.000  H
  H258     1.0000 0.45640  0.84869  0.74600  Biso   1.000  H
  C193     1.0000 0.40045  0.84015  0.67904  Biso   1.000  C
  C194     1.0000 0.36753  0.61370  0.80765  Biso   1.000  C
  C195     1.0000 0.38630  0.69235  0.86753  Biso   1.000  C
  C196     1.0000 0.38630  0.80765  0.63242  Biso   1.000  C
  C197     1.0000 0.36753  0.88626  0.69235  Biso   1.000  C
  C198     1.0000 0.32096  0.59951  0.84015  Biso   1.000  C
  H259     1.0000 0.37687  0.59151  0.77599  Biso   1.000  H
  C199     1.0000 0.34015  0.67904  0.90045  Biso   1.000  C
  H260     1.0000 0.40849  0.72397  0.87687  Biso   1.000  H
  C200     1.0000 0.34015  0.82092  0.59951  Biso   1.000  C
  H261     1.0000 0.40849  0.77599  0.62308  Biso   1.000  H
  C201     1.0000 0.32096  0.90045  0.65981  Biso   1.000  C
  H262     1.0000 0.37687  0.90849  0.72397  Biso   1.000  H
  C202     1.0000 0.28683  0.55009  0.82725  Biso   1.000  C
  C203     1.0000 0.30765  0.63242  0.88626  Biso   1.000  C
  C204     1.0000 0.32725  0.71317  0.94991  Biso   1.000  C
  C205     1.0000 0.32725  0.78683  0.55009  Biso   1.000  C
  C206     1.0000 0.30765  0.86753  0.61370  Biso   1.000  C
  C207     1.0000 0.28683  0.94991  0.67271  Biso   1.000  C
  N27      1.0000 0.29923  0.51596  0.78905  Biso   1.000  N
  H263     1.0000 0.25400  0.54360  0.84869  Biso   1.000  H
  H264     1.0000 0.27599  0.62308  0.90849  Biso   1.000  H
  N28      1.0000 0.28905  0.70077  0.98404  Biso   1.000  N
  H265     1.0000 0.34869  0.74600  0.95640  Biso   1.000  H
  N29      1.0000 0.28905  0.79923  0.51596  Biso   1.000  N
  H266     1.0000 0.34869  0.75400  0.54360  Biso   1.000  H
  H267     1.0000 0.27599  0.87687  0.59151  Biso   1.000  H
  N30      1.0000 0.29923  0.98404  0.71091  Biso   1.000  N
  H268     1.0000 0.25400  0.95640  0.65127  Biso   1.000  H
  C208     1.0000 0.26124  0.46943  0.77971  Biso   1.000  C
  C209     1.0000 0.27971  0.73876  0.03057  Biso   1.000  C
  C210     1.0000 0.27971  0.76124  0.46943  Biso   1.000  C
  C211     1.0000 0.26124  0.03057  0.72029  Biso   1.000  C
  C212     1.0000 0.23876  0.46943  0.72029  Biso   1.000  C
  C213     1.0000 0.28771  0.41126  0.78474  Biso   1.000  C
  C214     1.0000 0.30371  0.42110  0.80237  Biso   1.000  C
  H269     1.0000 0.22921  0.47228  0.80647  Biso   1.000  H
  C215     1.0000 0.22029  0.76124  0.03057  Biso   1.000  C
  H270     1.0000 0.30647  0.77079  0.02768  Biso   1.000  H
  C216     1.0000 0.28474  0.71229  0.08874  Biso   1.000  C
  C217     1.0000 0.30241  0.69629  0.07890  Biso   1.000  C
  C218     1.0000 0.22029  0.73876  0.46943  Biso   1.000  C
  H271     1.0000 0.30647  0.72921  0.47228  Biso   1.000  H
  C219     1.0000 0.28474  0.78767  0.41126  Biso   1.000  C
  C220     1.0000 0.30241  0.80367  0.42110  Biso   1.000  C
  C221     1.0000 0.23876  0.03057  0.77971  Biso   1.000  C
  H272     1.0000 0.22921  0.02768  0.69348  Biso   1.000  H
  C222     1.0000 0.28771  0.08874  0.71522  Biso   1.000  C
  C223     1.0000 0.30371  0.07890  0.69759  Biso   1.000  C
  C224     1.0000 0.21229  0.41126  0.71522  Biso   1.000  C
  C225     1.0000 0.19629  0.42110  0.69759  Biso   1.000  C
  N31      1.0000 0.20077  0.51596  0.71091  Biso   1.000  N
  H273     1.0000 0.27079  0.47228  0.69348  Biso   1.000  H
  C226     1.0000 0.24998  0.36967  0.74998  Biso   1.000  C
  C227     1.0000 0.27201  0.36640  0.79148  Biso   1.000  C
  H274     1.0000 0.28918  0.39949  0.82448  Biso   1.000  H
  H275     1.0000 0.32628  0.41168  0.76970  Biso   1.000  H
  H276     1.0000 0.33960  0.42189  0.78160  Biso   1.000  H
  H277     1.0000 0.31150  0.42600  0.84287  Biso   1.000  H
  N32      1.0000 0.21095  0.79923  0.98404  Biso   1.000  N
  H278     1.0000 0.19348  0.72921  0.02768  Biso   1.000  H
  C228     1.0000 0.21522  0.78767  0.08874  Biso   1.000  C
  C229     1.0000 0.19759  0.80367  0.07890  Biso   1.000  C
  H279     1.0000 0.32448  0.71078  0.10047  Biso   1.000  H
  H280     1.0000 0.26970  0.67367  0.08828  Biso   1.000  H
  C230     1.0000 0.24998  0.74998  0.13033  Biso   1.000  C
  H281     1.0000 0.28160  0.66040  0.07811  Biso   1.000  H
  C231     1.0000 0.29148  0.72799  0.13360  Biso   1.000  C
  H282     1.0000 0.34291  0.68850  0.07400  Biso   1.000  H
  N33      1.0000 0.21095  0.70077  0.51596  Biso   1.000  N
  H283     1.0000 0.19348  0.77079  0.47228  Biso   1.000  H
  C232     1.0000 0.21522  0.71229  0.41126  Biso   1.000  C
  C233     1.0000 0.19759  0.69629  0.42110  Biso   1.000  C
  C234     1.0000 0.24998  0.74998  0.36967  Biso   1.000  C
  H284     1.0000 0.32448  0.78918  0.39949  Biso   1.000  H
  H285     1.0000 0.26970  0.82628  0.41168  Biso   1.000  H
  H286     1.0000 0.28160  0.83960  0.42189  Biso   1.000  H
  C235     1.0000 0.29148  0.77201  0.36640  Biso   1.000  C
  H287     1.0000 0.34291  0.81150  0.42600  Biso   1.000  H
  N34      1.0000 0.20077  0.98404  0.78905  Biso   1.000  N
  H288     1.0000 0.27079  0.02768  0.80647  Biso   1.000  H
  C236     1.0000 0.21229  0.08874  0.78474  Biso   1.000  C
  C237     1.0000 0.19629  0.07890  0.80237  Biso   1.000  C
  C238     1.0000 0.24998  0.13033  0.74998  Biso   1.000  C
  H289     1.0000 0.28918  0.10047  0.67548  Biso   1.000  H
  H290     1.0000 0.32628  0.08828  0.73030  Biso   1.000  H
  H291     1.0000 0.33960  0.07811  0.71840  Biso   1.000  H
  C239     1.0000 0.27201  0.13360  0.70848  Biso   1.000  C
  H292     1.0000 0.31150  0.07400  0.65709  Biso   1.000  H
  C240     1.0000 0.22799  0.36640  0.70848  Biso   1.000  C
  H293     1.0000 0.21078  0.39949  0.67548  Biso   1.000  H
  H294     1.0000 0.17372  0.41168  0.73030  Biso   1.000  H
  H295     1.0000 0.16040  0.42189  0.71840  Biso   1.000  H
  H296     1.0000 0.18850  0.42600  0.65709  Biso   1.000  H
  C241     1.0000 0.21317  0.55009  0.67271  Biso   1.000  C
  H297     1.0000 0.27289  0.34567  0.72510  Biso   1.000  H
  H298     1.0000 0.22711  0.34567  0.77490  Biso   1.000  H
  H299     1.0000 0.29848  0.33449  0.79090  Biso   1.000  H
  H300     1.0000 0.24428  0.35979  0.82159  Biso   1.000  H
  C242     1.0000 0.17271  0.78683  0.94991  Biso   1.000  C
  H301     1.0000 0.17552  0.78918  0.10047  Biso   1.000  H
  H302     1.0000 0.23030  0.82628  0.08828  Biso   1.000  H
  H303     1.0000 0.21840  0.83960  0.07811  Biso   1.000  H
  C243     1.0000 0.20848  0.77201  0.13360  Biso   1.000  C
  H304     1.0000 0.15709  0.81150  0.07400  Biso   1.000  H
  H305     1.0000 0.27490  0.77289  0.15428  Biso   1.000  H
  H306     1.0000 0.22510  0.72707  0.15428  Biso   1.000  H
  H307     1.0000 0.29090  0.70148  0.16551  Biso   1.000  H
  H308     1.0000 0.32159  0.75567  0.14021  Biso   1.000  H
  C244     1.0000 0.17271  0.71317  0.55009  Biso   1.000  C
  H309     1.0000 0.17552  0.71078  0.39949  Biso   1.000  H
  H310     1.0000 0.23030  0.67367  0.41168  Biso   1.000  H
  H311     1.0000 0.21840  0.66040  0.42189  Biso   1.000  H
  C245     1.0000 0.20848  0.72799  0.36640  Biso   1.000  C
  H312     1.0000 0.15709  0.68850  0.42600  Biso   1.000  H
  H313     1.0000 0.27490  0.72707  0.34567  Biso   1.000  H
  H314     1.0000 0.22510  0.77289  0.34567  Biso   1.000  H
  H315     1.0000 0.29090  0.79848  0.33449  Biso   1.000  H
  H316     1.0000 0.32159  0.74428  0.35979  Biso   1.000  H
  C246     1.0000 0.21317  0.94991  0.82725  Biso   1.000  C
  H317     1.0000 0.21078  0.10047  0.82448  Biso   1.000  H
  H318     1.0000 0.17372  0.08828  0.76970  Biso   1.000  H
  H319     1.0000 0.16040  0.07811  0.78160  Biso   1.000  H
  C247     1.0000 0.22799  0.13360  0.79148  Biso   1.000  C
  H320     1.0000 0.18850  0.07400  0.84287  Biso   1.000  H
  H321     1.0000 0.22711  0.15428  0.72510  Biso   1.000  H
  H322     1.0000 0.27289  0.15428  0.77490  Biso   1.000  H
  H323     1.0000 0.29848  0.16551  0.70910  Biso   1.000  H
  H324     1.0000 0.24428  0.14021  0.67841  Biso   1.000  H
  H325     1.0000 0.20148  0.33449  0.70910  Biso   1.000  H
  H326     1.0000 0.25572  0.35979  0.67841  Biso   1.000  H
  H327     1.0000 0.24600  0.54360  0.65127  Biso   1.000  H
  C248     1.0000 0.17904  0.59951  0.65981  Biso   1.000  C
  H328     1.0000 0.15131  0.75400  0.95640  Biso   1.000  H
  C249     1.0000 0.15985  0.82092  0.90045  Biso   1.000  C
  H329     1.0000 0.20910  0.79848  0.16551  Biso   1.000  H
  H330     1.0000 0.17841  0.74428  0.14021  Biso   1.000  H
  C250     1.0000 0.15985  0.67904  0.59951  Biso   1.000  C
  H331     1.0000 0.15131  0.74600  0.54360  Biso   1.000  H
  H332     1.0000 0.20910  0.70148  0.33449  Biso   1.000  H
  H333     1.0000 0.17841  0.75567  0.35979  Biso   1.000  H
  C251     1.0000 0.17904  0.90045  0.84015  Biso   1.000  C
  H334     1.0000 0.24600  0.95640  0.84869  Biso   1.000  H
  H335     1.0000 0.20148  0.16551  0.79090  Biso   1.000  H
  H336     1.0000 0.25572  0.14021  0.82159  Biso   1.000  H
  C252     1.0000 0.13242  0.61370  0.69235  Biso   1.000  C
  C253     1.0000 0.19235  0.63242  0.61370  Biso   1.000  C
  C254     1.0000 0.11370  0.80765  0.86753  Biso   1.000  C
  C255     1.0000 0.19235  0.86753  0.88626  Biso   1.000  C
  C256     1.0000 0.11370  0.69235  0.63242  Biso   1.000  C
  C257     1.0000 0.13242  0.88626  0.80765  Biso   1.000  C
  C258     1.0000 0.09955  0.65981  0.67904  Biso   1.000  C
  H337     1.0000 0.12308  0.59151  0.72397  Biso   1.000  H
  H338     1.0000 0.22401  0.62308  0.59151  Biso   1.000  H
  C259     1.0000 0.09955  0.84015  0.82092  Biso   1.000  C
  H339     1.0000 0.09151  0.77599  0.87687  Biso   1.000  H
  H340     1.0000 0.22401  0.87687  0.90849  Biso   1.000  H
  H341     1.0000 0.09151  0.72397  0.62308  Biso   1.000  H
  H342     1.0000 0.12308  0.90849  0.77599  Biso   1.000  H
  C260     1.0000 0.05009  0.67271  0.71317  Biso   1.000  C
  C261     1.0000 0.05009  0.82725  0.78683  Biso   1.000  C
  N35      1.0000 0.01596  0.71091  0.70077  Biso   1.000  N
  H343     1.0000 0.04360  0.65127  0.74600  Biso   1.000  H
  N36      1.0000 0.01596  0.78905  0.79923  Biso   1.000  N
  H344     1.0000 0.04360  0.84869  0.75400  Biso   1.000  H
  C262     1.0000 0.96943  0.72029  0.73876  Biso   1.000  C
  C263     1.0000 0.96943  0.77971  0.76124  Biso   1.000  C
  H345     1.0000 0.97232  0.69348  0.77079  Biso   1.000  H
  C264     1.0000 0.91126  0.71522  0.71229  Biso   1.000  C
  C265     1.0000 0.92110  0.69759  0.69629  Biso   1.000  C
  H346     1.0000 0.97232  0.80647  0.72921  Biso   1.000  H
  C266     1.0000 0.91126  0.78474  0.78767  Biso   1.000  C
  C267     1.0000 0.92110  0.80237  0.80367  Biso   1.000  C
  C268     1.0000 0.86967  0.74998  0.74998  Biso   1.000  C
  H347     1.0000 0.89949  0.67548  0.71078  Biso   1.000  H
  H348     1.0000 0.91172  0.73030  0.67367  Biso   1.000  H
  H349     1.0000 0.92189  0.71840  0.66040  Biso   1.000  H
  C269     1.0000 0.86640  0.70848  0.72799  Biso   1.000  C
  H350     1.0000 0.92600  0.65709  0.68850  Biso   1.000  H
  H351     1.0000 0.89949  0.82448  0.78918  Biso   1.000  H
  H352     1.0000 0.91172  0.76970  0.82628  Biso   1.000  H
  H353     1.0000 0.92189  0.78160  0.83960  Biso   1.000  H
  C270     1.0000 0.86640  0.79148  0.77201  Biso   1.000  C
  H354     1.0000 0.92600  0.84287  0.81150  Biso   1.000  H
  H355     1.0000 0.84572  0.72510  0.77289  Biso   1.000  H
  H356     1.0000 0.84572  0.77490  0.72707  Biso   1.000  H
  H357     1.0000 0.83449  0.70910  0.70148  Biso   1.000  H
  H358     1.0000 0.85979  0.67841  0.75567  Biso   1.000  H
  H359     1.0000 0.83449  0.79090  0.79848  Biso   1.000  H
  H360     1.0000 0.85979  0.82159  0.74428  Biso   1.000  H
  C271     1.0000 0.64938  0.58820  0.57053  Biso   1.000  C
  C272     1.0000 0.69972  0.57505  0.53744  Biso   1.000  C
  C273     1.0000 0.61722  0.63414  0.55608  Biso   1.000  C
  C274     1.0000 0.63414  0.55608  0.61722  Biso   1.000  C
  N37      1.0000 0.73314  0.53547  0.55000  Biso   1.000  N
  H361     1.0000 0.70760  0.59708  0.50528  Biso   1.000  H
  C275     1.0000 0.57053  0.64938  0.58820  Biso   1.000  C
  H362     1.0000 0.62690  0.65558  0.52400  Biso   1.000  H
  C276     1.0000 0.58820  0.57053  0.64938  Biso   1.000  C
  H363     1.0000 0.65558  0.52400  0.62690  Biso   1.000  H
  C277     1.0000 0.78202  0.52902  0.51361  Biso   1.000  C
  C278     1.0000 0.53744  0.69972  0.57505  Biso   1.000  C
  C279     1.0000 0.55608  0.61722  0.63414  Biso   1.000  C
  C280     1.0000 0.57505  0.53744  0.69972  Biso   1.000  C
  C281     1.0000 0.78202  0.47094  0.48639  Biso   1.000  C
  H364     1.0000 0.81669  0.53401  0.53589  Biso   1.000  H
  H365     1.0000 0.78139  0.55817  0.48409  Biso   1.000  H
  N38      1.0000 0.55000  0.73314  0.53547  Biso   1.000  N
  H366     1.0000 0.50528  0.70760  0.59708  Biso   1.000  H
  H367     1.0000 0.52400  0.62690  0.65558  Biso   1.000  H
  N39      1.0000 0.53547  0.55000  0.73314  Biso   1.000  N
  H368     1.0000 0.59708  0.50528  0.70760  Biso   1.000  H
  N40      1.0000 0.73314  0.46453  0.45000  Biso   1.000  N
  H369     1.0000 0.81669  0.46599  0.46411  Biso   1.000  H
  H370     1.0000 0.78139  0.44179  0.51587  Biso   1.000  H
  C282     1.0000 0.51361  0.78202  0.52902  Biso   1.000  C
  C283     1.0000 0.52902  0.51361  0.78202  Biso   1.000  C
  C284     1.0000 0.69972  0.42495  0.46252  Biso   1.000  C
  C285     1.0000 0.48639  0.78202  0.47094  Biso   1.000  C
  H371     1.0000 0.53589  0.81669  0.53401  Biso   1.000  H
  H372     1.0000 0.48409  0.78139  0.55817  Biso   1.000  H
  C286     1.0000 0.47094  0.48639  0.78202  Biso   1.000  C
  H373     1.0000 0.53401  0.53589  0.81669  Biso   1.000  H
  H374     1.0000 0.55817  0.48409  0.78139  Biso   1.000  H
  C287     1.0000 0.64938  0.41176  0.42947  Biso   1.000  C
  H375     1.0000 0.70760  0.40288  0.49468  Biso   1.000  H
  N41      1.0000 0.45000  0.73314  0.46453  Biso   1.000  N
  H376     1.0000 0.46411  0.81669  0.46599  Biso   1.000  H
  H377     1.0000 0.51587  0.78139  0.44179  Biso   1.000  H
  N42      1.0000 0.46453  0.45000  0.73314  Biso   1.000  N
  H378     1.0000 0.46599  0.46411  0.81669  Biso   1.000  H
  H379     1.0000 0.44179  0.51587  0.78139  Biso   1.000  H
  C288     1.0000 0.61722  0.36586  0.44388  Biso   1.000  C
  C289     1.0000 0.63414  0.44388  0.38274  Biso   1.000  C
  C290     1.0000 0.46252  0.69972  0.42495  Biso   1.000  C
  C291     1.0000 0.42495  0.46252  0.69972  Biso   1.000  C
  C292     1.0000 0.57053  0.35057  0.41176  Biso   1.000  C
  H380     1.0000 0.62690  0.34438  0.47600  Biso   1.000  H
  C293     1.0000 0.58820  0.42947  0.35057  Biso   1.000  C
  H381     1.0000 0.65558  0.47600  0.37310  Biso   1.000  H
  C294     1.0000 0.42947  0.64938  0.41176  Biso   1.000  C
  H382     1.0000 0.49468  0.70760  0.40288  Biso   1.000  H
  C295     1.0000 0.41176  0.42947  0.64938  Biso   1.000  C
  H383     1.0000 0.40288  0.49468  0.70760  Biso   1.000  H
  C296     1.0000 0.53744  0.30023  0.42495  Biso   1.000  C
  C297     1.0000 0.55608  0.38274  0.36586  Biso   1.000  C
  C298     1.0000 0.57505  0.46252  0.30023  Biso   1.000  C
  C299     1.0000 0.44388  0.61722  0.36586  Biso   1.000  C
  C300     1.0000 0.38274  0.63414  0.44388  Biso   1.000  C
  C301     1.0000 0.44388  0.38274  0.63414  Biso   1.000  C
  C302     1.0000 0.36586  0.44388  0.61722  Biso   1.000  C
  N43      1.0000 0.55000  0.26686  0.46453  Biso   1.000  N
  H384     1.0000 0.50528  0.29240  0.40288  Biso   1.000  H
  H385     1.0000 0.52400  0.37310  0.34438  Biso   1.000  H
  N44      1.0000 0.53547  0.45000  0.26686  Biso   1.000  N
  H386     1.0000 0.59708  0.49468  0.29240  Biso   1.000  H
  C303     1.0000 0.41176  0.57053  0.35057  Biso   1.000  C
  H387     1.0000 0.47600  0.62690  0.34438  Biso   1.000  H
  C304     1.0000 0.35057  0.58820  0.42947  Biso   1.000  C
  H388     1.0000 0.37310  0.65558  0.47600  Biso   1.000  H
  C305     1.0000 0.42947  0.35057  0.58820  Biso   1.000  C
  H389     1.0000 0.47600  0.37310  0.65558  Biso   1.000  H
  C306     1.0000 0.35057  0.41176  0.57053  Biso   1.000  C
  H390     1.0000 0.34438  0.47600  0.62690  Biso   1.000  H
  C307     1.0000 0.51361  0.21798  0.47094  Biso   1.000  C
  C308     1.0000 0.52902  0.48639  0.21798  Biso   1.000  C
  C309     1.0000 0.42495  0.53744  0.30023  Biso   1.000  C
  C310     1.0000 0.36586  0.55608  0.38274  Biso   1.000  C
  C311     1.0000 0.30023  0.57505  0.46252  Biso   1.000  C
  C312     1.0000 0.46252  0.30023  0.57505  Biso   1.000  C
  C313     1.0000 0.38274  0.36586  0.55608  Biso   1.000  C
  C314     1.0000 0.30023  0.42495  0.53744  Biso   1.000  C
  C315     1.0000 0.48639  0.21798  0.52902  Biso   1.000  C
  H391     1.0000 0.53589  0.18331  0.46599  Biso   1.000  H
  H392     1.0000 0.48409  0.21861  0.44179  Biso   1.000  H
  C316     1.0000 0.47094  0.51361  0.21798  Biso   1.000  C
  H393     1.0000 0.53401  0.46411  0.18331  Biso   1.000  H
  H394     1.0000 0.55817  0.51587  0.21861  Biso   1.000  H
  N45      1.0000 0.46453  0.55000  0.26686  Biso   1.000  N
  H395     1.0000 0.40288  0.50528  0.29240  Biso   1.000  H
  H396     1.0000 0.34438  0.52400  0.37310  Biso   1.000  H
  N46      1.0000 0.26686  0.53547  0.45000  Biso   1.000  N
  H397     1.0000 0.29240  0.59708  0.49468  Biso   1.000  H
  N47      1.0000 0.45000  0.26686  0.53547  Biso   1.000  N
  H398     1.0000 0.49468  0.29240  0.59708  Biso   1.000  H
  H399     1.0000 0.37310  0.34438  0.52400  Biso   1.000  H
  N48      1.0000 0.26686  0.46453  0.55000  Biso   1.000  N
  H400     1.0000 0.29240  0.40288  0.50528  Biso   1.000  H
  H401     1.0000 0.46411  0.18331  0.53401  Biso   1.000  H
  H402     1.0000 0.51587  0.21861  0.55817  Biso   1.000  H
  H403     1.0000 0.46599  0.53589  0.18331  Biso   1.000  H
  H404     1.0000 0.44179  0.48409  0.21861  Biso   1.000  H
  C317     1.0000 0.21798  0.52902  0.48639  Biso   1.000  C
  C318     1.0000 0.21798  0.47094  0.51361  Biso   1.000  C
  H405     1.0000 0.18331  0.53401  0.46411  Biso   1.000  H
  H406     1.0000 0.21861  0.55817  0.51587  Biso   1.000  H
  H407     1.0000 0.18331  0.46599  0.53589  Biso   1.000  H
  H408     1.0000 0.21861  0.44179  0.48409  Biso   1.000  H
  C319     1.0000 0.88274  0.86586  0.55608  Biso   1.000  C
  C320     1.0000 0.92947  0.85057  0.58820  Biso   1.000  C
  H409     1.0000 0.87310  0.84442  0.52400  Biso   1.000  H
  C321     1.0000 0.85057  0.91176  0.57053  Biso   1.000  C
  H410     1.0000 0.87310  0.84438  0.52400  Biso   1.000  H
  C322     1.0000 0.96252  0.80028  0.57505  Biso   1.000  C
  C323     1.0000 0.96252  0.80023  0.57505  Biso   1.000  C
  C324     1.0000 0.94388  0.88278  0.63414  Biso   1.000  C
  C325     1.0000 0.88278  0.86586  0.55608  Biso   1.000  C
  C326     1.0000 0.94388  0.88274  0.63414  Biso   1.000  C
  C327     1.0000 0.86586  0.94388  0.61722  Biso   1.000  C
  C328     1.0000 0.80028  0.92491  0.53744  Biso   1.000  C
  C329     1.0000 0.80023  0.92491  0.53744  Biso   1.000  C
  N49      1.0000 0.95000  0.76686  0.53547  Biso   1.000  N
  H411     1.0000 0.99468  0.79240  0.59708  Biso   1.000  H
  H412     1.0000 0.97600  0.87310  0.65558  Biso   1.000  H
  C330     1.0000 0.91176  0.92947  0.64938  Biso   1.000  C
  H413     1.0000 0.84442  0.97600  0.62690  Biso   1.000  H
  H414     1.0000 0.84438  0.97600  0.62690  Biso   1.000  H
  N50      1.0000 0.76686  0.96453  0.55000  Biso   1.000  N
  H415     1.0000 0.79240  0.90288  0.50528  Biso   1.000  H
  C331     1.0000 0.98639  0.71794  0.52902  Biso   1.000  C
  C332     1.0000 0.92491  0.96252  0.69972  Biso   1.000  C
  C333     1.0000 0.71794  0.97094  0.51361  Biso   1.000  C
  H416     1.0000 0.96411  0.68331  0.53401  Biso   1.000  H
  H417     1.0000 0.96407  0.68331  0.53401  Biso   1.000  H
  C334     1.0000 0.01361  0.71794  0.47094  Biso   1.000  C
  H418     1.0000 0.01587  0.71857  0.55817  Biso   1.000  H
  N51      1.0000 0.96453  0.95000  0.73314  Biso   1.000  N
  H419     1.0000 0.90288  0.99468  0.70760  Biso   1.000  H
  H420     1.0000 0.68331  0.96599  0.53589  Biso   1.000  H
  H421     1.0000 0.71857  0.94179  0.48409  Biso   1.000  H
  C335     1.0000 0.71794  0.02902  0.48639  Biso   1.000  C
  H422     1.0000 0.98409  0.71857  0.44179  Biso   1.000  H
  H423     1.0000 0.03589  0.68331  0.46599  Biso   1.000  H
  N52      1.0000 0.04996  0.76686  0.46453  Biso   1.000  N
  C336     1.0000 0.97094  0.98639  0.78202  Biso   1.000  C
  N53      1.0000 0.76686  0.03547  0.45000  Biso   1.000  N
  H424     1.0000 0.68331  0.03401  0.46411  Biso   1.000  H
  H425     1.0000 0.68331  0.03396  0.46411  Biso   1.000  H
  H426     1.0000 0.71857  0.05821  0.51587  Biso   1.000  H
  H427     1.0000 0.71857  0.05817  0.51587  Biso   1.000  H
  C337     1.0000 0.03748  0.80028  0.42495  Biso   1.000  C
  C338     1.0000 0.03748  0.80023  0.42495  Biso   1.000  C
  C339     1.0000 0.03744  0.80028  0.42495  Biso   1.000  C
  C340     1.0000 0.03744  0.80023  0.42495  Biso   1.000  C
  H428     1.0000 0.96599  0.96411  0.81669  Biso   1.000  H
  H429     1.0000 0.96599  0.96407  0.81669  Biso   1.000  H
  H430     1.0000 0.94179  0.01587  0.78139  Biso   1.000  H
  C341     1.0000 0.02902  0.01361  0.78202  Biso   1.000  C
  C342     1.0000 0.80028  0.07505  0.46252  Biso   1.000  C
  C343     1.0000 0.80023  0.07505  0.46252  Biso   1.000  C
  C344     1.0000 0.07053  0.85057  0.41176  Biso   1.000  C
  H431     1.0000 0.00528  0.79240  0.40288  Biso   1.000  H
  C345     1.0000 0.07048  0.85057  0.41176  Biso   1.000  C
  H432     1.0000 0.05821  0.98409  0.78139  Biso   1.000  H
  H433     1.0000 0.05817  0.98409  0.78139  Biso   1.000  H
  H434     1.0000 0.03401  0.03589  0.81669  Biso   1.000  H
  N54      1.0000 0.03547  0.04996  0.73314  Biso   1.000  N
  H435     1.0000 0.03396  0.03589  0.81669  Biso   1.000  H
  C346     1.0000 0.85057  0.08820  0.42947  Biso   1.000  C
  H436     1.0000 0.79240  0.09708  0.49468  Biso   1.000  H
  C347     1.0000 0.05612  0.88278  0.36586  Biso   1.000  C
  C348     1.0000 0.11722  0.86586  0.44388  Biso   1.000  C
  C349     1.0000 0.05612  0.88274  0.36586  Biso   1.000  C
  C350     1.0000 0.05608  0.88278  0.36586  Biso   1.000  C
  C351     1.0000 0.05608  0.88274  0.36586  Biso   1.000  C
  C352     1.0000 0.07505  0.03748  0.69972  Biso   1.000  C
  C353     1.0000 0.07505  0.03744  0.69972  Biso   1.000  C
  C354     1.0000 0.88278  0.13414  0.44388  Biso   1.000  C
  C355     1.0000 0.86586  0.05612  0.38274  Biso   1.000  C
  C356     1.0000 0.86586  0.05608  0.38274  Biso   1.000  C
  C357     1.0000 0.88274  0.13414  0.44388  Biso   1.000  C
  C358     1.0000 0.08820  0.92947  0.35057  Biso   1.000  C
  H437     1.0000 0.02400  0.87310  0.34438  Biso   1.000  H
  H438     1.0000 0.12690  0.84442  0.47600  Biso   1.000  H
  C359     1.0000 0.14943  0.91176  0.42947  Biso   1.000  C
  H439     1.0000 0.12690  0.84438  0.47600  Biso   1.000  H
  C360     1.0000 0.14938  0.91176  0.42947  Biso   1.000  C
  C361     1.0000 0.08820  0.07053  0.64938  Biso   1.000  C
  C362     1.0000 0.08820  0.07048  0.64938  Biso   1.000  C
  H440     1.0000 0.09708  0.00528  0.70760  Biso   1.000  H
  C363     1.0000 0.92947  0.14943  0.41176  Biso   1.000  C
  H441     1.0000 0.87310  0.15558  0.47600  Biso   1.000  H
  C364     1.0000 0.92947  0.14938  0.41176  Biso   1.000  C
  H442     1.0000 0.84442  0.02400  0.37310  Biso   1.000  H
  C365     1.0000 0.91176  0.07053  0.35057  Biso   1.000  C
  H443     1.0000 0.84438  0.02400  0.37310  Biso   1.000  H
  C366     1.0000 0.91176  0.07048  0.35057  Biso   1.000  C
  C367     1.0000 0.07505  0.96252  0.30023  Biso   1.000  C
  C368     1.0000 0.13414  0.94388  0.38274  Biso   1.000  C
  C369     1.0000 0.19972  0.92491  0.46252  Biso   1.000  C
  C370     1.0000 0.13414  0.05612  0.61722  Biso   1.000  C
  C371     1.0000 0.05612  0.11722  0.63414  Biso   1.000  C
  C372     1.0000 0.13414  0.05608  0.61722  Biso   1.000  C
  C373     1.0000 0.05608  0.11722  0.63414  Biso   1.000  C
  C374     1.0000 0.96252  0.19972  0.42495  Biso   1.000  C
  C375     1.0000 0.94388  0.11722  0.36586  Biso   1.000  C
  C376     1.0000 0.92491  0.03748  0.30023  Biso   1.000  C
  C377     1.0000 0.92491  0.03744  0.30023  Biso   1.000  C
  N55      1.0000 0.03547  0.95000  0.26686  Biso   1.000  N
  H444     1.0000 0.09708  0.99468  0.29240  Biso   1.000  H
  H445     1.0000 0.15558  0.97600  0.37310  Biso   1.000  H
  N56      1.0000 0.23314  0.96453  0.45000  Biso   1.000  N
  H446     1.0000 0.20760  0.90288  0.49468  Biso   1.000  H
  N57      1.0000 0.23310  0.96453  0.45000  Biso   1.000  N
  C378     1.0000 0.14943  0.08820  0.57053  Biso   1.000  C
  H447     1.0000 0.15558  0.02400  0.62690  Biso   1.000  H
  C379     1.0000 0.14938  0.08820  0.57053  Biso   1.000  C
  C380     1.0000 0.07053  0.14943  0.58820  Biso   1.000  C
  H448     1.0000 0.02400  0.12690  0.65558  Biso   1.000  H
  C381     1.0000 0.07053  0.14938  0.58820  Biso   1.000  C
  C382     1.0000 0.07048  0.14943  0.58820  Biso   1.000  C
  C383     1.0000 0.07048  0.14938  0.58820  Biso   1.000  C
  N58      1.0000 0.95000  0.23314  0.46453  Biso   1.000  N
  H449     1.0000 0.99468  0.20760  0.40288  Biso   1.000  H
  N59      1.0000 0.95000  0.23310  0.46453  Biso   1.000  N
  H450     1.0000 0.97600  0.12690  0.34438  Biso   1.000  H
  N60      1.0000 0.96453  0.04996  0.26686  Biso   1.000  N
  H451     1.0000 0.90288  0.00528  0.29240  Biso   1.000  H
  C384     1.0000 0.02902  0.98639  0.21798  Biso   1.000  C
  C385     1.0000 0.28202  0.97094  0.48639  Biso   1.000  C
  C386     1.0000 0.19972  0.07505  0.53744  Biso   1.000  C
  C387     1.0000 0.11722  0.13414  0.55608  Biso   1.000  C
  C388     1.0000 0.03748  0.19972  0.57505  Biso   1.000  C
  C389     1.0000 0.03744  0.19972  0.57505  Biso   1.000  C
  C390     1.0000 0.98639  0.28202  0.47094  Biso   1.000  C
  C391     1.0000 0.97094  0.01361  0.21798  Biso   1.000  C
  H452     1.0000 0.03401  0.96411  0.18331  Biso   1.000  H
  H453     1.0000 0.03401  0.96407  0.18331  Biso   1.000  H
  H454     1.0000 0.03396  0.96411  0.18331  Biso   1.000  H
  H455     1.0000 0.03396  0.96407  0.18331  Biso   1.000  H
  H456     1.0000 0.05821  0.01587  0.21861  Biso   1.000  H
  H457     1.0000 0.05817  0.01587  0.21861  Biso   1.000  H
  H458     1.0000 0.31669  0.96599  0.46411  Biso   1.000  H
  H459     1.0000 0.28139  0.94179  0.51587  Biso   1.000  H
  C392     1.0000 0.28202  0.02902  0.51361  Biso   1.000  C
  N61      1.0000 0.23314  0.03547  0.55000  Biso   1.000  N
  N62      1.0000 0.23310  0.03547  0.55000  Biso   1.000  N
  H460     1.0000 0.20760  0.09708  0.50528  Biso   1.000  H
  H461     1.0000 0.12690  0.15558  0.52400  Biso   1.000  H
  N63      1.0000 0.04996  0.23314  0.53547  Biso   1.000  N
  H462     1.0000 0.00528  0.20760  0.59708  Biso   1.000  H
  N64      1.0000 0.04996  0.23310  0.53547  Biso   1.000  N
  C393     1.0000 0.01361  0.28202  0.52902  Biso   1.000  C
  H463     1.0000 0.96411  0.31669  0.46599  Biso   1.000  H
  H464     1.0000 0.96407  0.31669  0.46599  Biso   1.000  H
  H465     1.0000 0.01587  0.28139  0.44179  Biso   1.000  H
  H466     1.0000 0.94179  0.98409  0.21861  Biso   1.000  H
  H467     1.0000 0.96599  0.03589  0.18331  Biso   1.000  H
  H468     1.0000 0.31669  0.03401  0.53589  Biso   1.000  H
  H469     1.0000 0.28139  0.05821  0.48409  Biso   1.000  H
  H470     1.0000 0.31669  0.03396  0.53589  Biso   1.000  H
  H471     1.0000 0.28139  0.05817  0.48409  Biso   1.000  H
  H472     1.0000 0.98409  0.28139  0.55817  Biso   1.000  H
  H473     1.0000 0.03589  0.31669  0.53401  Biso   1.000  H
  C394     1.0000 0.86586  0.55608  0.88274  Biso   1.000  C
  C395     1.0000 0.85057  0.58820  0.92947  Biso   1.000  C
  H474     1.0000 0.84442  0.52400  0.87310  Biso   1.000  H
  C396     1.0000 0.91176  0.57053  0.85057  Biso   1.000  C
  H475     1.0000 0.84438  0.52400  0.87310  Biso   1.000  H
  C397     1.0000 0.80028  0.57505  0.96252  Biso   1.000  C
  C398     1.0000 0.80023  0.57505  0.96252  Biso   1.000  C
  C399     1.0000 0.88278  0.63414  0.94388  Biso   1.000  C
  C400     1.0000 0.86586  0.55608  0.88278  Biso   1.000  C
  C401     1.0000 0.88274  0.63414  0.94388  Biso   1.000  C
  C402     1.0000 0.94388  0.61722  0.86586  Biso   1.000  C
  C403     1.0000 0.92491  0.53744  0.80028  Biso   1.000  C
  C404     1.0000 0.92491  0.53744  0.80023  Biso   1.000  C
  N65      1.0000 0.76686  0.53547  0.95000  Biso   1.000  N
  H476     1.0000 0.79240  0.59708  0.99468  Biso   1.000  H
  H477     1.0000 0.87310  0.65558  0.97600  Biso   1.000  H
  C405     1.0000 0.92947  0.64938  0.91176  Biso   1.000  C
  H478     1.0000 0.97600  0.62690  0.84442  Biso   1.000  H
  H479     1.0000 0.97600  0.62690  0.84438  Biso   1.000  H
  N66      1.0000 0.96453  0.55000  0.76686  Biso   1.000  N
  H480     1.0000 0.90288  0.50528  0.79240  Biso   1.000  H
  C406     1.0000 0.71794  0.52902  0.98639  Biso   1.000  C
  C407     1.0000 0.96252  0.69972  0.92491  Biso   1.000  C
  C408     1.0000 0.97094  0.51361  0.71794  Biso   1.000  C
  H481     1.0000 0.68331  0.53401  0.96411  Biso   1.000  H
  H482     1.0000 0.68331  0.53401  0.96407  Biso   1.000  H
  C409     1.0000 0.71794  0.47094  0.01361  Biso   1.000  C
  H483     1.0000 0.71857  0.55817  0.01587  Biso   1.000  H
  N67      1.0000 0.95000  0.73314  0.96453  Biso   1.000  N
  H484     1.0000 0.99468  0.70760  0.90288  Biso   1.000  H
  H485     1.0000 0.96599  0.53589  0.68331  Biso   1.000  H
  H486     1.0000 0.94179  0.48409  0.71857  Biso   1.000  H
  C410     1.0000 0.02902  0.48639  0.71794  Biso   1.000  C
  H487     1.0000 0.71857  0.44179  0.98409  Biso   1.000  H
  H488     1.0000 0.68331  0.46599  0.03589  Biso   1.000  H
  N68      1.0000 0.76686  0.46453  0.04996  Biso   1.000  N
  C411     1.0000 0.98639  0.78202  0.97094  Biso   1.000  C
  N69      1.0000 0.03547  0.45000  0.76686  Biso   1.000  N
  H489     1.0000 0.03401  0.46411  0.68331  Biso   1.000  H
  H490     1.0000 0.05821  0.51587  0.71857  Biso   1.000  H
  H491     1.0000 0.03396  0.46411  0.68331  Biso   1.000  H
  H492     1.0000 0.05817  0.51587  0.71857  Biso   1.000  H
  C412     1.0000 0.80028  0.42495  0.03748  Biso   1.000  C
  C413     1.0000 0.80028  0.42495  0.03744  Biso   1.000  C
  C414     1.0000 0.80023  0.42495  0.03748  Biso   1.000  C
  C415     1.0000 0.80023  0.42495  0.03744  Biso   1.000  C
  H493     1.0000 0.96411  0.81669  0.96599  Biso   1.000  H
  H494     1.0000 0.96407  0.81669  0.96599  Biso   1.000  H
  H495     1.0000 0.01587  0.78139  0.94179  Biso   1.000  H
  C416     1.0000 0.01361  0.78202  0.02902  Biso   1.000  C
  C417     1.0000 0.07505  0.46252  0.80028  Biso   1.000  C
  C418     1.0000 0.07505  0.46252  0.80023  Biso   1.000  C
  C419     1.0000 0.85057  0.41176  0.07053  Biso   1.000  C
  H496     1.0000 0.79240  0.40288  0.00528  Biso   1.000  H
  C420     1.0000 0.85057  0.41176  0.07048  Biso   1.000  C
  H497     1.0000 0.98409  0.78139  0.05821  Biso   1.000  H
  H498     1.0000 0.98409  0.78139  0.05817  Biso   1.000  H
  H499     1.0000 0.03589  0.81669  0.03401  Biso   1.000  H
  H500     1.0000 0.03589  0.81669  0.03396  Biso   1.000  H
  N70      1.0000 0.04996  0.73314  0.03547  Biso   1.000  N
  C421     1.0000 0.08820  0.42947  0.85057  Biso   1.000  C
  H501     1.0000 0.09708  0.49468  0.79240  Biso   1.000  H
  C422     1.0000 0.88278  0.36586  0.05612  Biso   1.000  C
  C423     1.0000 0.86586  0.44388  0.11722  Biso   1.000  C
  C424     1.0000 0.88278  0.36586  0.05608  Biso   1.000  C
  C425     1.0000 0.88274  0.36586  0.05612  Biso   1.000  C
  C426     1.0000 0.88274  0.36586  0.05608  Biso   1.000  C
  C427     1.0000 0.03748  0.69972  0.07505  Biso   1.000  C
  C428     1.0000 0.03744  0.69972  0.07505  Biso   1.000  C
  C429     1.0000 0.13414  0.44388  0.88278  Biso   1.000  C
  C430     1.0000 0.05612  0.38274  0.86586  Biso   1.000  C
  C431     1.0000 0.13414  0.44388  0.88274  Biso   1.000  C
  C432     1.0000 0.05608  0.38274  0.86586  Biso   1.000  C
  C433     1.0000 0.92947  0.35057  0.08820  Biso   1.000  C
  H502     1.0000 0.87310  0.34438  0.02400  Biso   1.000  H
  H503     1.0000 0.84442  0.47600  0.12690  Biso   1.000  H
  C434     1.0000 0.91176  0.42947  0.14943  Biso   1.000  C
  H504     1.0000 0.84438  0.47600  0.12690  Biso   1.000  H
  C435     1.0000 0.91176  0.42947  0.14938  Biso   1.000  C
  C436     1.0000 0.07053  0.64938  0.08820  Biso   1.000  C
  C437     1.0000 0.07048  0.64938  0.08820  Biso   1.000  C
  H505     1.0000 0.00528  0.70760  0.09708  Biso   1.000  H
  C438     1.0000 0.14943  0.41176  0.92947  Biso   1.000  C
  H506     1.0000 0.15558  0.47600  0.87310  Biso   1.000  H
  C439     1.0000 0.14938  0.41176  0.92947  Biso   1.000  C
  H507     1.0000 0.02400  0.37310  0.84442  Biso   1.000  H
  C440     1.0000 0.07053  0.35057  0.91176  Biso   1.000  C
  H508     1.0000 0.02400  0.37310  0.84438  Biso   1.000  H
  C441     1.0000 0.07048  0.35057  0.91176  Biso   1.000  C
  C442     1.0000 0.96252  0.30023  0.07505  Biso   1.000  C
  C443     1.0000 0.94388  0.38274  0.13414  Biso   1.000  C
  C444     1.0000 0.92491  0.46252  0.19972  Biso   1.000  C
  C445     1.0000 0.05612  0.61722  0.13414  Biso   1.000  C
  C446     1.0000 0.11722  0.63414  0.05612  Biso   1.000  C
  C447     1.0000 0.11722  0.63414  0.05608  Biso   1.000  C
  C448     1.0000 0.05608  0.61722  0.13414  Biso   1.000  C
  C449     1.0000 0.19972  0.42495  0.96252  Biso   1.000  C
  C450     1.0000 0.11722  0.36586  0.94388  Biso   1.000  C
  C451     1.0000 0.03748  0.30023  0.92491  Biso   1.000  C
  C452     1.0000 0.03744  0.30023  0.92491  Biso   1.000  C
  N71      1.0000 0.95000  0.26686  0.03547  Biso   1.000  N
  H509     1.0000 0.99468  0.29240  0.09708  Biso   1.000  H
  H510     1.0000 0.97600  0.37310  0.15558  Biso   1.000  H
  N72      1.0000 0.96453  0.45000  0.23314  Biso   1.000  N
  H511     1.0000 0.90288  0.49468  0.20760  Biso   1.000  H
  N73      1.0000 0.96453  0.45000  0.23310  Biso   1.000  N
  C453     1.0000 0.08820  0.57053  0.14943  Biso   1.000  C
  H512     1.0000 0.02400  0.62690  0.15558  Biso   1.000  H
  C454     1.0000 0.08820  0.57053  0.14938  Biso   1.000  C
  C455     1.0000 0.14943  0.58820  0.07053  Biso   1.000  C
  H513     1.0000 0.12690  0.65558  0.02400  Biso   1.000  H
  C456     1.0000 0.14943  0.58820  0.07048  Biso   1.000  C
  C457     1.0000 0.14938  0.58820  0.07053  Biso   1.000  C
  C458     1.0000 0.14938  0.58820  0.07048  Biso   1.000  C
  N74      1.0000 0.23314  0.46453  0.95000  Biso   1.000  N
  H514     1.0000 0.20760  0.40288  0.99468  Biso   1.000  H
  N75      1.0000 0.23310  0.46453  0.95000  Biso   1.000  N
  H515     1.0000 0.12690  0.34438  0.97600  Biso   1.000  H
  N76      1.0000 0.04996  0.26686  0.96453  Biso   1.000  N
  H516     1.0000 0.00528  0.29240  0.90288  Biso   1.000  H
  C459     1.0000 0.98639  0.21798  0.02902  Biso   1.000  C
  C460     1.0000 0.97094  0.48639  0.28202  Biso   1.000  C
  C461     1.0000 0.07505  0.53744  0.19972  Biso   1.000  C
  C462     1.0000 0.13414  0.55608  0.11722  Biso   1.000  C
  C463     1.0000 0.19972  0.57505  0.03748  Biso   1.000  C
  C464     1.0000 0.19972  0.57505  0.03744  Biso   1.000  C
  C465     1.0000 0.28202  0.47094  0.98639  Biso   1.000  C
  C466     1.0000 0.01361  0.21798  0.97094  Biso   1.000  C
  H517     1.0000 0.96411  0.18331  0.03401  Biso   1.000  H
  H518     1.0000 0.96411  0.18331  0.03396  Biso   1.000  H
  H519     1.0000 0.96407  0.18331  0.03401  Biso   1.000  H
  H520     1.0000 0.96407  0.18331  0.03396  Biso   1.000  H
  H521     1.0000 0.01587  0.21861  0.05821  Biso   1.000  H
  H522     1.0000 0.01587  0.21861  0.05817  Biso   1.000  H
  H523     1.0000 0.96599  0.46411  0.31669  Biso   1.000  H
  H524     1.0000 0.94179  0.51587  0.28139  Biso   1.000  H
  C467     1.0000 0.02902  0.51361  0.28202  Biso   1.000  C
  N77      1.0000 0.03547  0.55000  0.23314  Biso   1.000  N
  N78      1.0000 0.03547  0.55000  0.23310  Biso   1.000  N
  H525     1.0000 0.09708  0.50528  0.20760  Biso   1.000  H
  H526     1.0000 0.15558  0.52400  0.12690  Biso   1.000  H
  N79      1.0000 0.23314  0.53547  0.04996  Biso   1.000  N
  H527     1.0000 0.20760  0.59708  0.00528  Biso   1.000  H
  N80      1.0000 0.23310  0.53547  0.04996  Biso   1.000  N
  C468     1.0000 0.28202  0.52902  0.01361  Biso   1.000  C
  H528     1.0000 0.31669  0.46599  0.96411  Biso   1.000  H
  H529     1.0000 0.31669  0.46599  0.96407  Biso   1.000  H
  H530     1.0000 0.28139  0.44179  0.01587  Biso   1.000  H
  H531     1.0000 0.98409  0.21861  0.94179  Biso   1.000  H
  H532     1.0000 0.03589  0.18331  0.96599  Biso   1.000  H
  H533     1.0000 0.03401  0.53589  0.31669  Biso   1.000  H
  H534     1.0000 0.05821  0.48409  0.28139  Biso   1.000  H
  H535     1.0000 0.03396  0.53589  0.31669  Biso   1.000  H
  H536     1.0000 0.05817  0.48409  0.28139  Biso   1.000  H
  H537     1.0000 0.28139  0.55817  0.98409  Biso   1.000  H
  H538     1.0000 0.31669  0.53401  0.03589  Biso   1.000  H
  C469     1.0000 0.55608  0.88274  0.86586  Biso   1.000  C
  C470     1.0000 0.58820  0.92947  0.85057  Biso   1.000  C
  H539     1.0000 0.52400  0.87310  0.84442  Biso   1.000  H
  C471     1.0000 0.57053  0.85057  0.91176  Biso   1.000  C
  H540     1.0000 0.52400  0.87310  0.84438  Biso   1.000  H
  C472     1.0000 0.57505  0.96252  0.80028  Biso   1.000  C
  C473     1.0000 0.57505  0.96252  0.80023  Biso   1.000  C
  C474     1.0000 0.63414  0.94388  0.88278  Biso   1.000  C
  C475     1.0000 0.55608  0.88278  0.86586  Biso   1.000  C
  C476     1.0000 0.63414  0.94388  0.88274  Biso   1.000  C
  C477     1.0000 0.61722  0.86586  0.94388  Biso   1.000  C
  C478     1.0000 0.53744  0.80028  0.92491  Biso   1.000  C
  C479     1.0000 0.53744  0.80023  0.92491  Biso   1.000  C
  N81      1.0000 0.53547  0.95000  0.76686  Biso   1.000  N
  H541     1.0000 0.59708  0.99468  0.79240  Biso   1.000  H
  H542     1.0000 0.65558  0.97600  0.87310  Biso   1.000  H
  C480     1.0000 0.64938  0.91176  0.92947  Biso   1.000  C
  H543     1.0000 0.62690  0.84442  0.97600  Biso   1.000  H
  H544     1.0000 0.62690  0.84438  0.97600  Biso   1.000  H
  N82      1.0000 0.55000  0.76686  0.96453  Biso   1.000  N
  H545     1.0000 0.50528  0.79240  0.90288  Biso   1.000  H
  C481     1.0000 0.52902  0.98639  0.71794  Biso   1.000  C
  C482     1.0000 0.69972  0.92491  0.96252  Biso   1.000  C
  C483     1.0000 0.51361  0.71794  0.97094  Biso   1.000  C
  H546     1.0000 0.53401  0.96411  0.68331  Biso   1.000  H
  H547     1.0000 0.53401  0.96407  0.68331  Biso   1.000  H
  C484     1.0000 0.47094  0.01361  0.71794  Biso   1.000  C
  H548     1.0000 0.55817  0.01587  0.71857  Biso   1.000  H
  N83      1.0000 0.73314  0.96453  0.95000  Biso   1.000  N
  H549     1.0000 0.70760  0.90288  0.99468  Biso   1.000  H
  H550     1.0000 0.53589  0.68331  0.96599  Biso   1.000  H
  H551     1.0000 0.48409  0.71857  0.94179  Biso   1.000  H
  C485     1.0000 0.48639  0.71794  0.02902  Biso   1.000  C
  H552     1.0000 0.44179  0.98409  0.71857  Biso   1.000  H
  H553     1.0000 0.46599  0.03589  0.68331  Biso   1.000  H
  N84      1.0000 0.46453  0.04996  0.76686  Biso   1.000  N
  C486     1.0000 0.78202  0.97094  0.98639  Biso   1.000  C
  N85      1.0000 0.45000  0.76686  0.03547  Biso   1.000  N
  H554     1.0000 0.46411  0.68331  0.03401  Biso   1.000  H
  H555     1.0000 0.46411  0.68331  0.03396  Biso   1.000  H
  H556     1.0000 0.51587  0.71857  0.05821  Biso   1.000  H
  H557     1.0000 0.51587  0.71857  0.05817  Biso   1.000  H
  C487     1.0000 0.42495  0.03748  0.80028  Biso   1.000  C
  C488     1.0000 0.42495  0.03748  0.80023  Biso   1.000  C
  C489     1.0000 0.42495  0.03744  0.80028  Biso   1.000  C
  C490     1.0000 0.42495  0.03744  0.80023  Biso   1.000  C
  H558     1.0000 0.81669  0.96599  0.96411  Biso   1.000  H
  H559     1.0000 0.81669  0.96599  0.96407  Biso   1.000  H
  H560     1.0000 0.78139  0.94179  0.01587  Biso   1.000  H
  C491     1.0000 0.78202  0.02902  0.01361  Biso   1.000  C
  C492     1.0000 0.46252  0.80028  0.07505  Biso   1.000  C
  C493     1.0000 0.46252  0.80023  0.07505  Biso   1.000  C
  C494     1.0000 0.41176  0.07053  0.85057  Biso   1.000  C
  H561     1.0000 0.40288  0.00528  0.79240  Biso   1.000  H
  C495     1.0000 0.41176  0.07048  0.85057  Biso   1.000  C
  H562     1.0000 0.78139  0.05821  0.98409  Biso   1.000  H
  H563     1.0000 0.78139  0.05817  0.98409  Biso   1.000  H
  H564     1.0000 0.81669  0.03401  0.03589  Biso   1.000  H
  N86      1.0000 0.73314  0.03547  0.04996  Biso   1.000  N
  H565     1.0000 0.81669  0.03396  0.03589  Biso   1.000  H
  C496     1.0000 0.42947  0.85057  0.08820  Biso   1.000  C
  H566     1.0000 0.49468  0.79240  0.09708  Biso   1.000  H
  C497     1.0000 0.36586  0.05612  0.88278  Biso   1.000  C
  C498     1.0000 0.44388  0.11722  0.86586  Biso   1.000  C
  C499     1.0000 0.36586  0.05612  0.88274  Biso   1.000  C
  C500     1.0000 0.36586  0.05608  0.88278  Biso   1.000  C
  C501     1.0000 0.36586  0.05608  0.88274  Biso   1.000  C
  C502     1.0000 0.69972  0.07505  0.03748  Biso   1.000  C
  C503     1.0000 0.69972  0.07505  0.03744  Biso   1.000  C
  C504     1.0000 0.44388  0.88278  0.13414  Biso   1.000  C
  C505     1.0000 0.38274  0.86586  0.05612  Biso   1.000  C
  C506     1.0000 0.38274  0.86586  0.05608  Biso   1.000  C
  C507     1.0000 0.44388  0.88274  0.13414  Biso   1.000  C
  C508     1.0000 0.35057  0.08820  0.92947  Biso   1.000  C
  H567     1.0000 0.34438  0.02400  0.87310  Biso   1.000  H
  H568     1.0000 0.47600  0.12690  0.84442  Biso   1.000  H
  C509     1.0000 0.42947  0.14943  0.91176  Biso   1.000  C
  H569     1.0000 0.47600  0.12690  0.84438  Biso   1.000  H
  C510     1.0000 0.42947  0.14938  0.91176  Biso   1.000  C
  C511     1.0000 0.64938  0.08820  0.07053  Biso   1.000  C
  C512     1.0000 0.64938  0.08820  0.07048  Biso   1.000  C
  H570     1.0000 0.70760  0.09708  0.00528  Biso   1.000  H
  C513     1.0000 0.41176  0.92947  0.14943  Biso   1.000  C
  H571     1.0000 0.47600  0.87310  0.15558  Biso   1.000  H
  C514     1.0000 0.41176  0.92947  0.14938  Biso   1.000  C
  H572     1.0000 0.37310  0.84442  0.02400  Biso   1.000  H
  C515     1.0000 0.35057  0.91176  0.07053  Biso   1.000  C
  H573     1.0000 0.37310  0.84438  0.02400  Biso   1.000  H
  C516     1.0000 0.35057  0.91176  0.07048  Biso   1.000  C
  C517     1.0000 0.30023  0.07505  0.96252  Biso   1.000  C
  C518     1.0000 0.38274  0.13414  0.94388  Biso   1.000  C
  C519     1.0000 0.46252  0.19972  0.92491  Biso   1.000  C
  C520     1.0000 0.61722  0.13414  0.05612  Biso   1.000  C
  C521     1.0000 0.63414  0.05612  0.11722  Biso   1.000  C
  C522     1.0000 0.61722  0.13414  0.05608  Biso   1.000  C
  C523     1.0000 0.63414  0.05608  0.11722  Biso   1.000  C
  C524     1.0000 0.42495  0.96252  0.19972  Biso   1.000  C
  C525     1.0000 0.36586  0.94388  0.11722  Biso   1.000  C
  C526     1.0000 0.30023  0.92491  0.03748  Biso   1.000  C
  C527     1.0000 0.30023  0.92491  0.03744  Biso   1.000  C
  N87      1.0000 0.26686  0.03547  0.95000  Biso   1.000  N
  H574     1.0000 0.29240  0.09708  0.99468  Biso   1.000  H
  H575     1.0000 0.37310  0.15558  0.97600  Biso   1.000  H
  N88      1.0000 0.45000  0.23314  0.96453  Biso   1.000  N
  H576     1.0000 0.49468  0.20760  0.90288  Biso   1.000  H
  N89      1.0000 0.45000  0.23310  0.96453  Biso   1.000  N
  C528     1.0000 0.57053  0.14943  0.08820  Biso   1.000  C
  H577     1.0000 0.62690  0.15558  0.02400  Biso   1.000  H
  C529     1.0000 0.57053  0.14938  0.08820  Biso   1.000  C
  C530     1.0000 0.58820  0.07053  0.14943  Biso   1.000  C
  H578     1.0000 0.65558  0.02400  0.12690  Biso   1.000  H
  C531     1.0000 0.58820  0.07053  0.14938  Biso   1.000  C
  C532     1.0000 0.58820  0.07048  0.14943  Biso   1.000  C
  C533     1.0000 0.58820  0.07048  0.14938  Biso   1.000  C
  N90      1.0000 0.46453  0.95000  0.23314  Biso   1.000  N
  H579     1.0000 0.40288  0.99468  0.20760  Biso   1.000  H
  N91      1.0000 0.46453  0.95000  0.23310  Biso   1.000  N
  H580     1.0000 0.34438  0.97600  0.12690  Biso   1.000  H
  N92      1.0000 0.26686  0.96453  0.04996  Biso   1.000  N
  H581     1.0000 0.29240  0.90288  0.00528  Biso   1.000  H
  C534     1.0000 0.21798  0.02902  0.98639  Biso   1.000  C
  C535     1.0000 0.48639  0.28202  0.97094  Biso   1.000  C
  C536     1.0000 0.53744  0.19972  0.07505  Biso   1.000  C
  C537     1.0000 0.55608  0.11722  0.13414  Biso   1.000  C
  C538     1.0000 0.57505  0.03748  0.19972  Biso   1.000  C
  C539     1.0000 0.57505  0.03744  0.19972  Biso   1.000  C
  C540     1.0000 0.47094  0.98639  0.28202  Biso   1.000  C
  C541     1.0000 0.21798  0.97094  0.01361  Biso   1.000  C
  H582     1.0000 0.18331  0.03401  0.96411  Biso   1.000  H
  H583     1.0000 0.18331  0.03401  0.96407  Biso   1.000  H
  H584     1.0000 0.18331  0.03396  0.96411  Biso   1.000  H
  H585     1.0000 0.18331  0.03396  0.96407  Biso   1.000  H
  H586     1.0000 0.21861  0.05821  0.01587  Biso   1.000  H
  H587     1.0000 0.21861  0.05817  0.01587  Biso   1.000  H
  H588     1.0000 0.46411  0.31669  0.96599  Biso   1.000  H
  H589     1.0000 0.51587  0.28139  0.94179  Biso   1.000  H
  C542     1.0000 0.51361  0.28202  0.02902  Biso   1.000  C
  N93      1.0000 0.55000  0.23314  0.03547  Biso   1.000  N
  N94      1.0000 0.55000  0.23310  0.03547  Biso   1.000  N
  H590     1.0000 0.50528  0.20760  0.09708  Biso   1.000  H
  H591     1.0000 0.52400  0.12690  0.15558  Biso   1.000  H
  N95      1.0000 0.53547  0.04996  0.23314  Biso   1.000  N
  H592     1.0000 0.59708  0.00528  0.20760  Biso   1.000  H
  N96      1.0000 0.53547  0.04996  0.23310  Biso   1.000  N
  C543     1.0000 0.52902  0.01361  0.28202  Biso   1.000  C
  H593     1.0000 0.46599  0.96411  0.31669  Biso   1.000  H
  H594     1.0000 0.46599  0.96407  0.31669  Biso   1.000  H
  H595     1.0000 0.44179  0.01587  0.28139  Biso   1.000  H
  H596     1.0000 0.21861  0.94179  0.98409  Biso   1.000  H
  H597     1.0000 0.18331  0.96599  0.03589  Biso   1.000  H
  H598     1.0000 0.53589  0.31669  0.03401  Biso   1.000  H
  H599     1.0000 0.48409  0.28139  0.05821  Biso   1.000  H
  H600     1.0000 0.53589  0.31669  0.03396  Biso   1.000  H
  H601     1.0000 0.48409  0.28139  0.05817  Biso   1.000  H
  H602     1.0000 0.55817  0.98409  0.28139  Biso   1.000  H
  H603     1.0000 0.53401  0.03589  0.31669  Biso   1.000  H
  C544     1.0000 0.63360  0.29148  0.22799  Biso   1.000  C
  C545     1.0000 0.58874  0.28474  0.21229  Biso   1.000  C
  C546     1.0000 0.57890  0.30241  0.19629  Biso   1.000  C
  C547     1.0000 0.63033  0.24998  0.24998  Biso   1.000  C
  H604     1.0000 0.60047  0.32448  0.21078  Biso   1.000  H
  H605     1.0000 0.65428  0.27490  0.27289  Biso   1.000  H
  H606     1.0000 0.66551  0.29090  0.20148  Biso   1.000  H
  H607     1.0000 0.64017  0.32159  0.25572  Biso   1.000  H
  C548     1.0000 0.53057  0.27971  0.23876  Biso   1.000  C
  H608     1.0000 0.58828  0.26970  0.17372  Biso   1.000  H
  H609     1.0000 0.57811  0.28160  0.16040  Biso   1.000  H
  H610     1.0000 0.57400  0.34291  0.18850  Biso   1.000  H
  C549     1.0000 0.58874  0.21522  0.28771  Biso   1.000  C
  C550     1.0000 0.63360  0.20848  0.27201  Biso   1.000  C
  H611     1.0000 0.65428  0.22510  0.22711  Biso   1.000  H
  C551     1.0000 0.53057  0.22029  0.26124  Biso   1.000  C
  N97      1.0000 0.48404  0.28905  0.20077  Biso   1.000  N
  H612     1.0000 0.52768  0.30647  0.27079  Biso   1.000  H
  H613     1.0000 0.60047  0.17552  0.28918  Biso   1.000  H
  H614     1.0000 0.58828  0.23030  0.32628  Biso   1.000  H
  H615     1.0000 0.57811  0.21840  0.33960  Biso   1.000  H
  C552     1.0000 0.57890  0.19759  0.30371  Biso   1.000  C
  H616     1.0000 0.66551  0.20910  0.29848  Biso   1.000  H
  H617     1.0000 0.64017  0.17841  0.24428  Biso   1.000  H
  N98      1.0000 0.48404  0.21095  0.29923  Biso   1.000  N
  H618     1.0000 0.52768  0.19348  0.22921  Biso   1.000  H
  C553     1.0000 0.44991  0.32725  0.21317  Biso   1.000  C
  H619     1.0000 0.57400  0.15709  0.31150  Biso   1.000  H
  C554     1.0000 0.44991  0.17271  0.28683  Biso   1.000  C
  H620     1.0000 0.45640  0.34869  0.24600  Biso   1.000  H
  C555     1.0000 0.40045  0.34015  0.17904  Biso   1.000  C
  C556     1.0000 0.40045  0.15985  0.32096  Biso   1.000  C
  H621     1.0000 0.45640  0.15131  0.25400  Biso   1.000  H
  C557     1.0000 0.38630  0.30765  0.13242  Biso   1.000  C
  C558     1.0000 0.36753  0.38630  0.19235  Biso   1.000  C
  C559     1.0000 0.38630  0.19235  0.36753  Biso   1.000  C
  C560     1.0000 0.36753  0.11370  0.30765  Biso   1.000  C
  C561     1.0000 0.34015  0.32096  0.09955  Biso   1.000  C
  H622     1.0000 0.40849  0.27599  0.12308  Biso   1.000  H
  C562     1.0000 0.32096  0.40045  0.15985  Biso   1.000  C
  H623     1.0000 0.37687  0.40849  0.22401  Biso   1.000  H
  C563     1.0000 0.34015  0.17904  0.40045  Biso   1.000  C
  H624     1.0000 0.40849  0.22401  0.37687  Biso   1.000  H
  C564     1.0000 0.32096  0.09955  0.34015  Biso   1.000  C
  H625     1.0000 0.37687  0.09151  0.27599  Biso   1.000  H
  C565     1.0000 0.32725  0.28683  0.05009  Biso   1.000  C
  C566     1.0000 0.30765  0.36753  0.11370  Biso   1.000  C
  C567     1.0000 0.28683  0.44991  0.17271  Biso   1.000  C
  C568     1.0000 0.32725  0.21317  0.44991  Biso   1.000  C
  C569     1.0000 0.30765  0.13242  0.38630  Biso   1.000  C
  C570     1.0000 0.28683  0.05009  0.32725  Biso   1.000  C
  N99      1.0000 0.28905  0.29923  0.01596  Biso   1.000  N
  H626     1.0000 0.34869  0.25400  0.04360  Biso   1.000  H
  H627     1.0000 0.27599  0.37687  0.09151  Biso   1.000  H
  N100     1.0000 0.29923  0.48404  0.21095  Biso   1.000  N
  H628     1.0000 0.25400  0.45640  0.15131  Biso   1.000  H
  N101     1.0000 0.28905  0.20077  0.48404  Biso   1.000  N
  H629     1.0000 0.34869  0.24600  0.45640  Biso   1.000  H
  H630     1.0000 0.27599  0.12308  0.40849  Biso   1.000  H
  N102     1.0000 0.29923  0.01596  0.28905  Biso   1.000  N
  H631     1.0000 0.25400  0.04360  0.34869  Biso   1.000  H
  C571     1.0000 0.27971  0.26124  0.96943  Biso   1.000  C
  C572     1.0000 0.26124  0.53057  0.22029  Biso   1.000  C
  C573     1.0000 0.27971  0.23876  0.53057  Biso   1.000  C
  C574     1.0000 0.26124  0.96943  0.27971  Biso   1.000  C
  C575     1.0000 0.22029  0.23876  0.96943  Biso   1.000  C
  H632     1.0000 0.30647  0.22921  0.97232  Biso   1.000  H
  C576     1.0000 0.28474  0.28771  0.91126  Biso   1.000  C
  C577     1.0000 0.30241  0.30371  0.92110  Biso   1.000  C
  C578     1.0000 0.23876  0.53057  0.27971  Biso   1.000  C
  H633     1.0000 0.22921  0.52768  0.19348  Biso   1.000  H
  C579     1.0000 0.28771  0.58874  0.21522  Biso   1.000  C
  C580     1.0000 0.30371  0.57890  0.19759  Biso   1.000  C
  C581     1.0000 0.22029  0.26124  0.53057  Biso   1.000  C
  H634     1.0000 0.30647  0.27079  0.52768  Biso   1.000  H
  C582     1.0000 0.28474  0.21229  0.58874  Biso   1.000  C
  C583     1.0000 0.30241  0.19629  0.57890  Biso   1.000  C
  C584     1.0000 0.23876  0.96943  0.22029  Biso   1.000  C
  H635     1.0000 0.22921  0.97232  0.30647  Biso   1.000  H
  C585     1.0000 0.28771  0.91126  0.28474  Biso   1.000  C
  C586     1.0000 0.30371  0.92110  0.30241  Biso   1.000  C
  N103     1.0000 0.21095  0.20077  0.01596  Biso   1.000  N
  H636     1.0000 0.19348  0.27079  0.97232  Biso   1.000  H
  C587     1.0000 0.21522  0.21229  0.91126  Biso   1.000  C
  C588     1.0000 0.19759  0.19629  0.92110  Biso   1.000  C
  H637     1.0000 0.32448  0.28918  0.89949  Biso   1.000  H
  H638     1.0000 0.26970  0.32628  0.91172  Biso   1.000  H
  C589     1.0000 0.24998  0.24998  0.86967  Biso   1.000  C
  H639     1.0000 0.28160  0.33960  0.92189  Biso   1.000  H
  C590     1.0000 0.29148  0.27201  0.86640  Biso   1.000  C
  H640     1.0000 0.34291  0.31150  0.92600  Biso   1.000  H
  N104     1.0000 0.20077  0.48404  0.28905  Biso   1.000  N
  H641     1.0000 0.27079  0.52768  0.30647  Biso   1.000  H
  C591     1.0000 0.21229  0.58874  0.28474  Biso   1.000  C
  C592     1.0000 0.19629  0.57890  0.30241  Biso   1.000  C
  H642     1.0000 0.28918  0.60047  0.17552  Biso   1.000  H
  H643     1.0000 0.32628  0.58828  0.23030  Biso   1.000  H
  C593     1.0000 0.24998  0.63033  0.24998  Biso   1.000  C
  H644     1.0000 0.33960  0.57811  0.21840  Biso   1.000  H
  C594     1.0000 0.27201  0.63360  0.20848  Biso   1.000  C
  H645     1.0000 0.31150  0.57400  0.15709  Biso   1.000  H
  N105     1.0000 0.21095  0.29923  0.48404  Biso   1.000  N
  H646     1.0000 0.19348  0.22921  0.52768  Biso   1.000  H
  C595     1.0000 0.21522  0.28771  0.58874  Biso   1.000  C
  C596     1.0000 0.19759  0.30371  0.57890  Biso   1.000  C
  H647     1.0000 0.32448  0.21078  0.60047  Biso   1.000  H
  H648     1.0000 0.26970  0.17372  0.58828  Biso   1.000  H
  C597     1.0000 0.24998  0.24998  0.63033  Biso   1.000  C
  H649     1.0000 0.28160  0.16040  0.57811  Biso   1.000  H
  C598     1.0000 0.29148  0.22799  0.63360  Biso   1.000  C
  H650     1.0000 0.34291  0.18850  0.57400  Biso   1.000  H
  N106     1.0000 0.20077  0.01596  0.21095  Biso   1.000  N
  H651     1.0000 0.27079  0.97232  0.19348  Biso   1.000  H
  C599     1.0000 0.21229  0.91126  0.21522  Biso   1.000  C
  C600     1.0000 0.19629  0.92110  0.19759  Biso   1.000  C
  H652     1.0000 0.28918  0.89949  0.32448  Biso   1.000  H
  H653     1.0000 0.32628  0.91172  0.26970  Biso   1.000  H
  C601     1.0000 0.24998  0.86967  0.24998  Biso   1.000  C
  H654     1.0000 0.33960  0.92189  0.28160  Biso   1.000  H
  C602     1.0000 0.27201  0.86640  0.29148  Biso   1.000  C
  H655     1.0000 0.31150  0.92600  0.34291  Biso   1.000  H
  C603     1.0000 0.17271  0.21317  0.05009  Biso   1.000  C
  H656     1.0000 0.17552  0.21078  0.89949  Biso   1.000  H
  H657     1.0000 0.23030  0.17372  0.91172  Biso   1.000  H
  H658     1.0000 0.21840  0.16040  0.92189  Biso   1.000  H
  C604     1.0000 0.20848  0.22799  0.86640  Biso   1.000  C
  H659     1.0000 0.15709  0.18850  0.92600  Biso   1.000  H
  H660     1.0000 0.27490  0.22711  0.84572  Biso   1.000  H
  H661     1.0000 0.22510  0.27289  0.84572  Biso   1.000  H
  H662     1.0000 0.29090  0.29848  0.83449  Biso   1.000  H
  H663     1.0000 0.32159  0.24428  0.85979  Biso   1.000  H
  C605     1.0000 0.21317  0.44991  0.32725  Biso   1.000  C
  H664     1.0000 0.21078  0.60047  0.32448  Biso   1.000  H
  H665     1.0000 0.17372  0.58828  0.26970  Biso   1.000  H
  H666     1.0000 0.16040  0.57811  0.28160  Biso   1.000  H
  C606     1.0000 0.22799  0.63360  0.29148  Biso   1.000  C
  H667     1.0000 0.18850  0.57400  0.34291  Biso   1.000  H
  H668     1.0000 0.22711  0.65428  0.22510  Biso   1.000  H
  H669     1.0000 0.27289  0.65428  0.27490  Biso   1.000  H
  H670     1.0000 0.29848  0.66551  0.20910  Biso   1.000  H
  H671     1.0000 0.24428  0.64017  0.17841  Biso   1.000  H
  C607     1.0000 0.17271  0.28683  0.44991  Biso   1.000  C
  H672     1.0000 0.17552  0.28918  0.60047  Biso   1.000  H
  H673     1.0000 0.23030  0.32628  0.58828  Biso   1.000  H
  H674     1.0000 0.21840  0.33960  0.57811  Biso   1.000  H
  C608     1.0000 0.20848  0.27201  0.63360  Biso   1.000  C
  H675     1.0000 0.15709  0.31150  0.57400  Biso   1.000  H
  H676     1.0000 0.27490  0.27289  0.65428  Biso   1.000  H
  H677     1.0000 0.22510  0.22711  0.65428  Biso   1.000  H
  H678     1.0000 0.29090  0.20148  0.66551  Biso   1.000  H
  H679     1.0000 0.32159  0.25572  0.64017  Biso   1.000  H
  C609     1.0000 0.21317  0.05009  0.17271  Biso   1.000  C
  H680     1.0000 0.21078  0.89949  0.17552  Biso   1.000  H
  H681     1.0000 0.17372  0.91172  0.23030  Biso   1.000  H
  H682     1.0000 0.16040  0.92189  0.21840  Biso   1.000  H
  C610     1.0000 0.22799  0.86640  0.20848  Biso   1.000  C
  H683     1.0000 0.18850  0.92600  0.15709  Biso   1.000  H
  H684     1.0000 0.22711  0.84572  0.27490  Biso   1.000  H
  H685     1.0000 0.27289  0.84572  0.22510  Biso   1.000  H
  H686     1.0000 0.29848  0.83449  0.29090  Biso   1.000  H
  H687     1.0000 0.24428  0.85979  0.32159  Biso   1.000  H
  C611     1.0000 0.15985  0.17904  0.09955  Biso   1.000  C
  H688     1.0000 0.15131  0.24600  0.04360  Biso   1.000  H
  H689     1.0000 0.20910  0.20148  0.83449  Biso   1.000  H
  H690     1.0000 0.17841  0.25572  0.85979  Biso   1.000  H
  C612     1.0000 0.17904  0.40045  0.34015  Biso   1.000  C
  H691     1.0000 0.24600  0.45640  0.34869  Biso   1.000  H
  H692     1.0000 0.20148  0.66551  0.29090  Biso   1.000  H
  H693     1.0000 0.25572  0.64017  0.32159  Biso   1.000  H
  H694     1.0000 0.15131  0.25400  0.45640  Biso   1.000  H
  C613     1.0000 0.15985  0.32096  0.40045  Biso   1.000  C
  H695     1.0000 0.20910  0.29848  0.66551  Biso   1.000  H
  H696     1.0000 0.17841  0.24428  0.64017  Biso   1.000  H
  H697     1.0000 0.24600  0.04360  0.15131  Biso   1.000  H
  C614     1.0000 0.17904  0.09955  0.15985  Biso   1.000  C
  H698     1.0000 0.20148  0.83449  0.20910  Biso   1.000  H
  H699     1.0000 0.25572  0.85979  0.17841  Biso   1.000  H
  C615     1.0000 0.19235  0.13242  0.11370  Biso   1.000  C
  C616     1.0000 0.11370  0.19235  0.13242  Biso   1.000  C
  C617     1.0000 0.19235  0.36753  0.38630  Biso   1.000  C
  C618     1.0000 0.13242  0.38630  0.30765  Biso   1.000  C
  C619     1.0000 0.11370  0.30765  0.36753  Biso   1.000  C
  C620     1.0000 0.13242  0.11370  0.19235  Biso   1.000  C
  H700     1.0000 0.22401  0.12308  0.09151  Biso   1.000  H
  C621     1.0000 0.09955  0.15985  0.17904  Biso   1.000  C
  H701     1.0000 0.09151  0.22401  0.12308  Biso   1.000  H
  H702     1.0000 0.22401  0.37687  0.40849  Biso   1.000  H
  C622     1.0000 0.09955  0.34015  0.32096  Biso   1.000  C
  H703     1.0000 0.12308  0.40849  0.27599  Biso   1.000  H
  H704     1.0000 0.09151  0.27599  0.37687  Biso   1.000  H
  H705     1.0000 0.12308  0.09151  0.22401  Biso   1.000  H
  C623     1.0000 0.05009  0.17271  0.21317  Biso   1.000  C
  C624     1.0000 0.05009  0.32725  0.28683  Biso   1.000  C
  N107     1.0000 0.01596  0.21095  0.20077  Biso   1.000  N
  H706     1.0000 0.04360  0.15131  0.24600  Biso   1.000  H
  N108     1.0000 0.01596  0.28905  0.29923  Biso   1.000  N
  H707     1.0000 0.04360  0.34869  0.25400  Biso   1.000  H
  C625     1.0000 0.96943  0.22029  0.23876  Biso   1.000  C
  C626     1.0000 0.96943  0.27971  0.26124  Biso   1.000  C
  H708     1.0000 0.97232  0.19348  0.27079  Biso   1.000  H
  C627     1.0000 0.91126  0.21522  0.21229  Biso   1.000  C
  C628     1.0000 0.92110  0.19759  0.19629  Biso   1.000  C
  H709     1.0000 0.97232  0.30647  0.22921  Biso   1.000  H
  C629     1.0000 0.91126  0.28474  0.28771  Biso   1.000  C
  C630     1.0000 0.92110  0.30241  0.30371  Biso   1.000  C
  C631     1.0000 0.86967  0.24998  0.24998  Biso   1.000  C
  H710     1.0000 0.89949  0.17552  0.21078  Biso   1.000  H
  H711     1.0000 0.91172  0.23030  0.17372  Biso   1.000  H
  H712     1.0000 0.92189  0.21840  0.16040  Biso   1.000  H
  C632     1.0000 0.86640  0.20848  0.22799  Biso   1.000  C
  H713     1.0000 0.92600  0.15709  0.18850  Biso   1.000  H
  H714     1.0000 0.89949  0.32448  0.28918  Biso   1.000  H
  H715     1.0000 0.91172  0.26970  0.32628  Biso   1.000  H
  H716     1.0000 0.92189  0.28160  0.33960  Biso   1.000  H
  C633     1.0000 0.86640  0.29148  0.27201  Biso   1.000  C
  H717     1.0000 0.92600  0.34291  0.31150  Biso   1.000  H
  H718     1.0000 0.84572  0.27490  0.22711  Biso   1.000  H
  H719     1.0000 0.84572  0.22510  0.27289  Biso   1.000  H
  H720     1.0000 0.83449  0.20910  0.20148  Biso   1.000  H
  H721     1.0000 0.85979  0.17841  0.25572  Biso   1.000  H
  H722     1.0000 0.83449  0.29090  0.29848  Biso   1.000  H
  H723     1.0000 0.85979  0.32159  0.24428  Biso   1.000  H
