data_image0
_cell_length_a       23.602
_cell_length_b       23.602
_cell_length_c       61.756
_cell_angle_alpha    90
_cell_angle_beta     90
_cell_angle_gamma    120

_symmetry_space_group_name_H-M    "P 1"
_symmetry_int_tables_number       1

loop_
  _symmetry_equiv_pos_as_xyz
  'x, y, z'

loop_
  _atom_site_label
  _atom_site_occupancy
  _atom_site_fract_x
  _atom_site_fract_y
  _atom_site_fract_z
  _atom_site_thermal_displace_type
  _atom_site_B_iso_or_equiv
  _atom_site_type_symbol
  C1       1.0000 0.60149  0.42407  0.41240  Biso   1.000  C
  C2       1.0000 0.54438  0.36018  0.41168  Biso   1.000  C
  H1       1.0000 0.61029  0.46057  0.40360  Biso   1.000  H
  C3       1.0000 0.64039  0.42221  0.42820  Biso   1.000  C
  C4       1.0000 0.49258  0.33987  0.39701  Biso   1.000  C
  N1       1.0000 0.54720  0.32030  0.42765  Biso   1.000  N
  C5       1.0000 0.60600  0.35749  0.43806  Biso   1.000  C
  H2       1.0000 0.68247  0.45680  0.43210  Biso   1.000  H
  C6       1.0000 0.49729  0.39031  0.38110  Biso   1.000  C
  C7       1.0000 0.43491  0.27970  0.39718  Biso   1.000  C
  H3       1.0000 0.51739  0.27960  0.43050  Biso   1.000  H
  C8       1.0000 0.63079  0.33997  0.45558  Biso   1.000  C
  C9       1.0000 0.54361  0.40651  0.36400  Biso   1.000  C
  C10      1.0000 0.46489  0.42202  0.38231  Biso   1.000  C
  N2       1.0000 0.41832  0.22872  0.41097  Biso   1.000  N
  C11      1.0000 0.37998  0.26018  0.38330  Biso   1.000  C
  C12      1.0000 0.59599  0.28180  0.46659  Biso   1.000  C
  C13      1.0000 0.69578  0.38792  0.46467  Biso   1.000  C
  C14      1.0000 0.55678  0.45930  0.35030  Biso   1.000  C
  H4       1.0000 0.56511  0.38190  0.36189  Biso   1.000  H
  C15      1.0000 0.47291  0.46840  0.36722  Biso   1.000  C
  H5       1.0000 0.43509  0.41267  0.39391  Biso   1.000  H
  C16      1.0000 0.35720  0.18028  0.40684  Biso   1.000  C
  H6       1.0000 0.44390  0.22759  0.42109  Biso   1.000  H
  C17      1.0000 0.33421  0.20142  0.38830  Biso   1.000  C
  H7       1.0000 0.37728  0.28620  0.37200  Biso   1.000  H
  N3       1.0000 0.53468  0.22799  0.46161  Biso   1.000  N
  C18      1.0000 0.61512  0.26091  0.48721  Biso   1.000  C
  C19      1.0000 0.74609  0.37559  0.46080  Biso   1.000  C
  C20      1.0000 0.70710  0.44149  0.47591  Biso   1.000  C
  C21      1.0000 0.51760  0.48787  0.35049  Biso   1.000  C
  H8       1.0000 0.59317  0.47588  0.34079  Biso   1.000  H
  C22      1.0000 0.43660  0.50519  0.37010  Biso   1.000  C
  C23      1.0000 0.32217  0.11888  0.41853  Biso   1.000  C
  H9       1.0000 0.29330  0.17671  0.38110  Biso   1.000  H
  C24      1.0000 0.51468  0.17901  0.47675  Biso   1.000  C
  H10      1.0000 0.51168  0.22588  0.45009  Biso   1.000  H
  H11      1.0000 0.65419  0.28660  0.49521  Biso   1.000  H
  C25      1.0000 0.56800  0.20039  0.49244  Biso   1.000  C
  H12      1.0000 0.73809  0.33669  0.45361  Biso   1.000  H
  C26      1.0000 0.80838  0.42060  0.46760  Biso   1.000  C
  C27      1.0000 0.76880  0.48650  0.48360  Biso   1.000  C
  H13      1.0000 0.67159  0.44868  0.47871  Biso   1.000  H
  H14      1.0000 0.52140  0.51869  0.33990  Biso   1.000  H
  N4       1.0000 0.44951  0.54540  0.38999  Biso   1.000  N
  H15      1.0000 0.44660  0.53449  0.35741  Biso   1.000  H
  H16      1.0000 0.38920  0.47300  0.36960  Biso   1.000  H
  C28      1.0000 0.34279  0.10020  0.43678  Biso   1.000  C
  C29      1.0000 0.25489  0.07559  0.41100  Biso   1.000  C
  C30      1.0000 0.45740  0.11962  0.47746  Biso   1.000  C
  H17      1.0000 0.56898  0.17549  0.50440  Biso   1.000  H
  H18      1.0000 0.84450  0.41580  0.46340  Biso   1.000  H
  C31      1.0000 0.81849  0.47158  0.48020  Biso   1.000  C
  C32      1.0000 0.77858  0.54301  0.49670  Biso   1.000  C
  C33      1.0000 0.51199  0.57309  0.39781  Biso   1.000  C
  C34      1.0000 0.40439  0.55338  0.39930  Biso   1.000  C
  N5       1.0000 0.40498  0.13782  0.44566  Biso   1.000  N
  C35      1.0000 0.30541  0.04129  0.44860  Biso   1.000  C
  C36      1.0000 0.20122  0.06272  0.42232  Biso   1.000  C
  C37      1.0000 0.24469  0.04340  0.39089  Biso   1.000  C
  C38      1.0000 0.40419  0.10201  0.46297  Biso   1.000  C
  C39      1.0000 0.44700  0.07060  0.49461  Biso   1.000  C
  H19      1.0000 0.85989  0.49760  0.48690  Biso   1.000  H
  H20      1.0000 0.76876  0.57168  0.48760  Biso   1.000  H
  H21      1.0000 0.82497  0.56859  0.50110  Biso   1.000  H
  N6       1.0000 0.73599  0.52300  0.51660  Biso   1.000  N
  H22      1.0000 0.54297  0.56497  0.39080  Biso   1.000  H
  C40      1.0000 0.52960  0.61169  0.41551  Biso   1.000  C
  C41      1.0000 0.41619  0.58919  0.41680  Biso   1.000  C
  H23      1.0000 0.36171  0.53258  0.39319  Biso   1.000  H
  H24      1.0000 0.43718  0.17569  0.44111  Biso   1.000  H
  C42      1.0000 0.34357  0.04168  0.46439  Biso   1.000  C
  H25      1.0000 0.26171  0.00812  0.44571  Biso   1.000  H
  H26      1.0000 0.20667  0.08278  0.43610  Biso   1.000  H
  C43      1.0000 0.13619  0.02021  0.41470  Biso   1.000  C
  H27      1.0000 0.28127  0.05098  0.38229  Biso   1.000  H
  C44      1.0000 0.17992  0.99961  0.38320  Biso   1.000  C
  C45      1.0000 0.45278  0.01580  0.49011  Biso   1.000  C
  C46      1.0000 0.43680  0.08180  0.51674  Biso   1.000  C
  C47      1.0000 0.70800  0.56209  0.52220  Biso   1.000  C
  C48      1.0000 0.72670  0.47441  0.52900  Biso   1.000  C
  H28      1.0000 0.57311  0.63219  0.42080  Biso   1.000  H
  C49      1.0000 0.47990  0.62119  0.42619  Biso   1.000  C
  H29      1.0000 0.38210  0.59379  0.42320  Biso   1.000  H
  H30      1.0000 0.33259  0.00812  0.47480  Biso   1.000  H
  C50      1.0000 0.07689  0.01091  0.42801  Biso   1.000  C
  C51      1.0000 0.12799  0.98880  0.39501  Biso   1.000  C
  H31      1.0000 0.17377  0.97808  0.36970  Biso   1.000  H
  H32      1.0000 0.46190  0.00812  0.47569  Biso   1.000  H
  C52      1.0000 0.44538  0.97329  0.50620  Biso   1.000  C
  C53      1.0000 0.42721  0.03992  0.53221  Biso   1.000  C
  H33      1.0000 0.43721  0.12109  0.52031  Biso   1.000  H
  C54      1.0000 0.66988  0.54619  0.53949  Biso   1.000  C
  H34      1.0000 0.71649  0.59897  0.51360  Biso   1.000  H
  H35      1.0000 0.74567  0.44888  0.52469  Biso   1.000  H
  C55      1.0000 0.69088  0.45768  0.54800  Biso   1.000  C
  C56      1.0000 0.49321  0.65959  0.44650  Biso   1.000  C
  N7       1.0000 0.07631  0.07050  0.43078  Biso   1.000  N
  H36      1.0000 0.03609  0.97872  0.42070  Biso   1.000  H
  H37      1.0000 0.07789  0.99300  0.44240  Biso   1.000  H
  H38      1.0000 0.08520  0.95939  0.38991  Biso   1.000  H
  H39      1.0000 0.45069  0.93689  0.50290  Biso   1.000  H
  C57      1.0000 0.43000  0.98160  0.52790  Biso   1.000  C
  C58      1.0000 0.41449  0.04922  0.55531  Biso   1.000  C
  C59      1.0000 0.65957  0.49320  0.55350  Biso   1.000  C
  H40      1.0000 0.64878  0.57050  0.54270  Biso   1.000  H
  H41      1.0000 0.68760  0.42358  0.55710  Biso   1.000  H
  C60      1.0000 0.54619  0.66987  0.46051  Biso   1.000  C
  C61      1.0000 0.45769  0.69090  0.45200  Biso   1.000  C
  C62      1.0000 0.05771  0.08601  0.45009  Biso   1.000  C
  C63      1.0000 0.09251  0.11502  0.41390  Biso   1.000  C
  H42      1.0000 0.42210  0.95029  0.53890  Biso   1.000  H
  N8       1.0000 0.35750  0.05768  0.55787  Biso   1.000  N
  H43      1.0000 0.40752  0.01062  0.56380  Biso   1.000  H
  H44      1.0000 0.45351  0.08811  0.56119  Biso   1.000  H
  C64      1.0000 0.62119  0.47989  0.57381  Biso   1.000  C
  H45      1.0000 0.57047  0.64878  0.45730  Biso   1.000  H
  C65      1.0000 0.56206  0.70798  0.47780  Biso   1.000  C
  C66      1.0000 0.47438  0.72667  0.47100  Biso   1.000  C
  H46      1.0000 0.42357  0.68758  0.44290  Biso   1.000  H
  C67      1.0000 0.05421  0.14070  0.45320  Biso   1.000  C
  H47      1.0000 0.04680  0.05641  0.46180  Biso   1.000  H
  H48      1.0000 0.10550  0.10499  0.40059  Biso   1.000  H
  C68      1.0000 0.09099  0.17148  0.41512  Biso   1.000  C
  C69      1.0000 0.29928  0.00988  0.54790  Biso   1.000  C
  C70      1.0000 0.35630  0.10240  0.57050  Biso   1.000  C
  C71      1.0000 0.61168  0.52960  0.58449  Biso   1.000  C
  C72      1.0000 0.58921  0.41620  0.58320  Biso   1.000  C
  N9       1.0000 0.52299  0.73601  0.48340  Biso   1.000  N
  H49      1.0000 0.59899  0.71649  0.48640  Biso   1.000  H
  H50      1.0000 0.44890  0.74570  0.47531  Biso   1.000  H
  C73      1.0000 0.06848  0.18298  0.43549  Biso   1.000  C
  H51      1.0000 0.04239  0.15020  0.46690  Biso   1.000  H
  H52      1.0000 0.10393  0.20142  0.40339  Biso   1.000  H
  C74      1.0000 0.24309  0.01570  0.54923  Biso   1.000  C
  H53      1.0000 0.29818  0.97422  0.54040  Biso   1.000  H
  C75      1.0000 0.30192  0.10651  0.57343  Biso   1.000  C
  H54      1.0000 0.39530  0.13268  0.57781  Biso   1.000  H
  C76      1.0000 0.57309  0.51199  0.60219  Biso   1.000  C
  H55      1.0000 0.63220  0.57309  0.57920  Biso   1.000  H
  H56      1.0000 0.59381  0.38210  0.57680  Biso   1.000  H
  C77      1.0000 0.55340  0.40440  0.60070  Biso   1.000  C
  C78      1.0000 0.54300  0.77857  0.50330  Biso   1.000  C
  C79      1.0000 0.06561  0.24579  0.43745  Biso   1.000  C
  C80      1.0000 0.24579  0.06561  0.56255  Biso   1.000  C
  H57      1.0000 0.20449  0.98699  0.54140  Biso   1.000  H
  H58      1.0000 0.30269  0.13821  0.58310  Biso   1.000  H
  N10      1.0000 0.54541  0.44951  0.61001  Biso   1.000  N
  H59      1.0000 0.56499  0.54301  0.60920  Biso   1.000  H
  H60      1.0000 0.53260  0.36169  0.60681  Biso   1.000  H
  C81      1.0000 0.48650  0.76879  0.51640  Biso   1.000  C
  H61      1.0000 0.57171  0.76879  0.51240  Biso   1.000  H
  H62      1.0000 0.56859  0.82500  0.49890  Biso   1.000  H
  C82      1.0000 0.01571  0.24310  0.45077  Biso   1.000  C
  C83      1.0000 0.10651  0.30191  0.42657  Biso   1.000  C
  C84      1.0000 0.18301  0.06849  0.56451  Biso   1.000  C
  C85      1.0000 0.50518  0.43660  0.62990  Biso   1.000  C
  C86      1.0000 0.47162  0.81850  0.51980  Biso   1.000  C
  C87      1.0000 0.44151  0.70710  0.52409  Biso   1.000  C
  C88      1.0000 0.00992  0.29932  0.45210  Biso   1.000  C
  H63      1.0000 0.98701  0.20450  0.45860  Biso   1.000  H
  H64      1.0000 0.13821  0.30269  0.41690  Biso   1.000  H
  C89      1.0000 0.10240  0.35631  0.42950  Biso   1.000  C
  C90      1.0000 0.14070  0.05421  0.54680  Biso   1.000  C
  C91      1.0000 0.17151  0.09100  0.58488  Biso   1.000  C
  C92      1.0000 0.46838  0.47290  0.63278  Biso   1.000  C
  H65      1.0000 0.53449  0.44658  0.64259  Biso   1.000  H
  H66      1.0000 0.47300  0.38919  0.63040  Biso   1.000  H
  C93      1.0000 0.42058  0.80837  0.53240  Biso   1.000  C
  H67      1.0000 0.49761  0.85989  0.51310  Biso   1.000  H
  C94      1.0000 0.38789  0.69579  0.53533  Biso   1.000  C
  H68      1.0000 0.44870  0.67158  0.52129  Biso   1.000  H
  N11      1.0000 0.05769  0.35749  0.44213  Biso   1.000  N
  H69      1.0000 0.97419  0.29819  0.45960  Biso   1.000  H
  H70      1.0000 0.13270  0.39530  0.42219  Biso   1.000  H
  H71      1.0000 0.15022  0.04242  0.53310  Biso   1.000  H
  C95      1.0000 0.08600  0.05768  0.54991  Biso   1.000  C
  C96      1.0000 0.11502  0.09251  0.58610  Biso   1.000  C
  H72      1.0000 0.20139  0.10391  0.59661  Biso   1.000  H
  C97      1.0000 0.42200  0.46487  0.61769  Biso   1.000  C
  C98      1.0000 0.48790  0.51761  0.64951  Biso   1.000  C
  C99      1.0000 0.37559  0.74609  0.53920  Biso   1.000  C
  H73      1.0000 0.41580  0.84447  0.53660  Biso   1.000  H
  C100     1.0000 0.34000  0.63078  0.54442  Biso   1.000  C
  C101     1.0000 0.04920  0.41448  0.44469  Biso   1.000  C
  N12      1.0000 0.07053  0.07632  0.56922  Biso   1.000  N
  H74      1.0000 0.05642  0.04682  0.53820  Biso   1.000  H
  H75      1.0000 0.10498  0.10548  0.59941  Biso   1.000  H
  C102     1.0000 0.39030  0.49731  0.61890  Biso   1.000  C
  H76      1.0000 0.41269  0.43508  0.60609  Biso   1.000  H
  C103     1.0000 0.45932  0.55680  0.64970  Biso   1.000  C
  H77      1.0000 0.51868  0.52138  0.66010  Biso   1.000  H
  H78      1.0000 0.33666  0.73807  0.54639  Biso   1.000  H
  C104     1.0000 0.35747  0.60597  0.56194  Biso   1.000  C
  C105     1.0000 0.28181  0.59599  0.53341  Biso   1.000  C
  C106     1.0000 0.03989  0.42720  0.46779  Biso   1.000  C
  H79      1.0000 0.01058  0.40749  0.43620  Biso   1.000  H
  H80      1.0000 0.08811  0.45348  0.43881  Biso   1.000  H
  C107     1.0000 0.01091  0.07691  0.57199  Biso   1.000  C
  C108     1.0000 0.33990  0.49261  0.60299  Biso   1.000  C
  C109     1.0000 0.40649  0.54359  0.63600  Biso   1.000  C
  H81      1.0000 0.47591  0.59320  0.65921  Biso   1.000  H
  N13      1.0000 0.32030  0.54721  0.57235  Biso   1.000  N
  C110     1.0000 0.42219  0.64041  0.57180  Biso   1.000  C
  N14      1.0000 0.22798  0.53469  0.53839  Biso   1.000  N
  C111     1.0000 0.26089  0.61507  0.51279  Biso   1.000  C
  C112     1.0000 0.08180  0.43679  0.48326  Biso   1.000  C
  C113     1.0000 0.98158  0.42999  0.47210  Biso   1.000  C
  C114     1.0000 0.02018  0.13620  0.58530  Biso   1.000  C
  H82      1.0000 0.97869  0.03611  0.57930  Biso   1.000  H
  H83      1.0000 0.99302  0.07789  0.55760  Biso   1.000  H
  C115     1.0000 0.36019  0.54438  0.58832  Biso   1.000  C
  C116     1.0000 0.27968  0.43488  0.60282  Biso   1.000  C
  H84      1.0000 0.38189  0.56507  0.63811  Biso   1.000  H
  H85      1.0000 0.27957  0.51737  0.56950  Biso   1.000  H
  C117     1.0000 0.42407  0.60147  0.58760  Biso   1.000  C
  H86      1.0000 0.45678  0.68249  0.56790  Biso   1.000  H
  C118     1.0000 0.17900  0.51468  0.52325  Biso   1.000  C
  H87      1.0000 0.22589  0.51169  0.54991  Biso   1.000  H
  H88      1.0000 0.28660  0.65421  0.50479  Biso   1.000  H
  C119     1.0000 0.20041  0.56801  0.50756  Biso   1.000  C
  C120     1.0000 0.07057  0.44697  0.50539  Biso   1.000  C
  H89      1.0000 0.12110  0.43718  0.47969  Biso   1.000  H
  C121     1.0000 0.97332  0.44540  0.49380  Biso   1.000  C
  H90      1.0000 0.95032  0.42211  0.46110  Biso   1.000  H
  C122     1.0000 0.06267  0.20117  0.57768  Biso   1.000  C
  C123     1.0000 0.98879  0.12798  0.60499  Biso   1.000  C
  N15      1.0000 0.22868  0.41830  0.58903  Biso   1.000  N
  C124     1.0000 0.26020  0.37999  0.61670  Biso   1.000  C
  H91      1.0000 0.46059  0.61028  0.59640  Biso   1.000  H
  C125     1.0000 0.11959  0.45739  0.52254  Biso   1.000  C
  H92      1.0000 0.17548  0.56898  0.49560  Biso   1.000  H
  C126     1.0000 0.01582  0.45279  0.50989  Biso   1.000  C
  H93      1.0000 0.93689  0.45069  0.49710  Biso   1.000  H
  C127     1.0000 0.07559  0.25489  0.58900  Biso   1.000  C
  H94      1.0000 0.08280  0.20670  0.56390  Biso   1.000  H
  C128     1.0000 0.99962  0.17989  0.61680  Biso   1.000  C
  H95      1.0000 0.95937  0.08518  0.61009  Biso   1.000  H
  C129     1.0000 0.18029  0.35719  0.59316  Biso   1.000  C
  H96      1.0000 0.22758  0.44389  0.57891  Biso   1.000  H
  C130     1.0000 0.20142  0.33420  0.61170  Biso   1.000  C
  H97      1.0000 0.28618  0.37730  0.62800  Biso   1.000  H
  C131     1.0000 0.10199  0.40421  0.53703  Biso   1.000  C
  H98      1.0000 0.00808  0.46189  0.52431  Biso   1.000  H
  C132     1.0000 0.11891  0.32221  0.58147  Biso   1.000  C
  C133     1.0000 0.04342  0.24472  0.60911  Biso   1.000  C
  H99      1.0000 0.97808  0.17378  0.63030  Biso   1.000  H
  H100     1.0000 0.17669  0.29330  0.61890  Biso   1.000  H
  N16      1.0000 0.13780  0.40499  0.55434  Biso   1.000  N
  C134     1.0000 0.04168  0.34359  0.53561  Biso   1.000  C
  C135     1.0000 0.10022  0.34281  0.56322  Biso   1.000  C
  H101     1.0000 0.05100  0.28131  0.61771  Biso   1.000  H
  H102     1.0000 0.17567  0.43718  0.55889  Biso   1.000  H
  H103     1.0000 0.00809  0.33258  0.52520  Biso   1.000  H
  C136     1.0000 0.04130  0.30538  0.55140  Biso   1.000  C
  H104     1.0000 0.00810  0.26169  0.55429  Biso   1.000  H
  C137     1.0000 0.72080  0.36331  0.39450  Biso   1.000  C
  C138     1.0000 0.73390  0.38831  0.37060  Biso   1.000  C
  C139     1.0000 0.73387  0.38826  0.37060  Biso   1.000  C
  N17      1.0000 0.65849  0.29579  0.39640  Biso   1.000  N
  H105     1.0000 0.75870  0.36037  0.39990  Biso   1.000  H
  H106     1.0000 0.71599  0.39511  0.40360  Biso   1.000  H
  H107     1.0000 0.71596  0.39506  0.40360  Biso   1.000  H
  C140     1.0000 0.74317  0.35220  0.35439  Biso   1.000  C
  C141     1.0000 0.74319  0.35215  0.35439  Biso   1.000  C
  C142     1.0000 0.73340  0.44129  0.36639  Biso   1.000  C
  C143     1.0000 0.72078  0.36326  0.39450  Biso   1.000  C
  C144     1.0000 0.65219  0.25049  0.40930  Biso   1.000  C
  C145     1.0000 0.60498  0.28351  0.38450  Biso   1.000  C
  C146     1.0000 0.60500  0.28346  0.38450  Biso   1.000  C
  C147     1.0000 0.75487  0.37407  0.33360  Biso   1.000  C
  H108     1.0000 0.74151  0.31218  0.35801  Biso   1.000  H
  C148     1.0000 0.75519  0.47241  0.34550  Biso   1.000  C
  C149     1.0000 0.75516  0.47236  0.34550  Biso   1.000  C
  H109     1.0000 0.71878  0.46018  0.37710  Biso   1.000  H
  H110     1.0000 0.68949  0.26018  0.41781  Biso   1.000  H
  C150     1.0000 0.59797  0.18958  0.41249  Biso   1.000  C
  C151     1.0000 0.59801  0.18958  0.41249  Biso   1.000  C
  H111     1.0000 0.60770  0.31659  0.37499  Biso   1.000  H
  C152     1.0000 0.54658  0.22451  0.38560  Biso   1.000  C
  C153     1.0000 0.54660  0.22446  0.38560  Biso   1.000  C
  C154     1.0000 0.76430  0.33650  0.31569  Biso   1.000  C
  C155     1.0000 0.75970  0.43508  0.32951  Biso   1.000  C
  H112     1.0000 0.76569  0.51629  0.34309  Biso   1.000  H
  H113     1.0000 0.59828  0.15851  0.42219  Biso   1.000  H
  C156     1.0000 0.54228  0.17666  0.40030  Biso   1.000  C
  H114     1.0000 0.59830  0.15846  0.42219  Biso   1.000  H
  H115     1.0000 0.51050  0.21649  0.37669  Biso   1.000  H
  C157     1.0000 0.71761  0.31091  0.30046  Biso   1.000  C
  C158     1.0000 0.71759  0.31086  0.30046  Biso   1.000  C
  C159     1.0000 0.82029  0.33077  0.31655  Biso   1.000  C
  H116     1.0000 0.76641  0.45078  0.31500  Biso   1.000  H
  C160     1.0000 0.47989  0.10866  0.40150  Biso   1.000  C
  N18      1.0000 0.71268  0.27588  0.28243  Biso   1.000  N
  C161     1.0000 0.65800  0.31438  0.30190  Biso   1.000  C
  C162     1.0000 0.86927  0.35357  0.33300  Biso   1.000  C
  N19      1.0000 0.83941  0.30401  0.29897  Biso   1.000  N
  N20      1.0000 0.83938  0.30396  0.29897  Biso   1.000  N
  C163     1.0000 0.43908  0.08738  0.38440  Biso   1.000  C
  C164     1.0000 0.47001  0.07001  0.42040  Biso   1.000  C
  C165     1.0000 0.46999  0.06996  0.42040  Biso   1.000  C
  C166     1.0000 0.65410  0.25279  0.27180  Biso   1.000  C
  H117     1.0000 0.74400  0.26879  0.27800  Biso   1.000  H
  C167     1.0000 0.61980  0.27901  0.28460  Biso   1.000  C
  C168     1.0000 0.61978  0.27896  0.28460  Biso   1.000  C
  H118     1.0000 0.64740  0.33650  0.31270  Biso   1.000  H
  H119     1.0000 0.86838  0.37348  0.34630  Biso   1.000  H
  C169     1.0000 0.91816  0.34178  0.32630  Biso   1.000  C
  C170     1.0000 0.91820  0.34178  0.32630  Biso   1.000  C
  H120     1.0000 0.81848  0.28699  0.28681  Biso   1.000  H
  C171     1.0000 0.89988  0.31150  0.30599  Biso   1.000  C
  H121     1.0000 0.44580  0.11438  0.37221  Biso   1.000  H
  C172     1.0000 0.38560  0.02270  0.38560  Biso   1.000  C
  H122     1.0000 0.50170  0.08449  0.43170  Biso   1.000  H
  C173     1.0000 0.41689  0.01512  0.42159  Biso   1.000  C
  C174     1.0000 0.41691  0.01507  0.42159  Biso   1.000  C
  C175     1.0000 0.63258  0.21169  0.25518  Biso   1.000  C
  H123     1.0000 0.57758  0.27260  0.28140  Biso   1.000  H
  H124     1.0000 0.57760  0.27255  0.28140  Biso   1.000  H
  H125     1.0000 0.95697  0.35230  0.33411  Biso   1.000  H
  H126     1.0000 0.95699  0.35225  0.33411  Biso   1.000  H
  C176     1.0000 0.93427  0.28826  0.29330  Biso   1.000  C
  N21      1.0000 0.37641  0.99119  0.40420  Biso   1.000  N
  H127     1.0000 0.35742  0.00269  0.37360  Biso   1.000  H
  H128     1.0000 0.40558  0.99090  0.43469  Biso   1.000  H
  C177     1.0000 0.56429  0.19119  0.24710  Biso   1.000  C
  C178     1.0000 0.66659  0.18488  0.24373  Biso   1.000  C
  C179     1.0000 0.91708  0.25480  0.27520  Biso   1.000  C
  C180     1.0000 0.99386  0.30939  0.30779  Biso   1.000  C
  C181     1.0000 0.00179  0.30440  0.30051  Biso   1.000  C
  C182     1.0000 0.00177  0.30436  0.30051  Biso   1.000  C
  C183     1.0000 0.31782  0.93341  0.40637  Biso   1.000  C
  C184     1.0000 0.31780  0.93337  0.40637  Biso   1.000  C
  C185     1.0000 0.50859  0.14530  0.25750  Biso   1.000  C
  C186     1.0000 0.50857  0.14525  0.25750  Biso   1.000  C
  C187     1.0000 0.55750  0.22118  0.22900  Biso   1.000  C
  N22      1.0000 0.72830  0.19790  0.24806  Biso   1.000  N
  C188     1.0000 0.64018  0.14080  0.22629  Biso   1.000  C
  C189     1.0000 0.64016  0.14075  0.22629  Biso   1.000  C
  N23      1.0000 0.85628  0.23209  0.26394  Biso   1.000  N
  C190     1.0000 0.94987  0.22598  0.26329  Biso   1.000  C
  C191     1.0000 0.05589  0.36380  0.29459  Biso   1.000  C
  C192     1.0000 0.01237  0.26370  0.31403  Biso   1.000  C
  C193     1.0000 0.01241  0.26370  0.31403  Biso   1.000  C
  C194     1.0000 0.04559  0.37388  0.30889  Biso   1.000  C
  C195     1.0000 0.32371  0.87740  0.41806  Biso   1.000  C
  H129     1.0000 0.29888  0.91791  0.39177  Biso   1.000  H
  H130     1.0000 0.29890  0.91786  0.39177  Biso   1.000  H
  H131     1.0000 0.28699  0.94217  0.41457  Biso   1.000  H
  C196     1.0000 0.44629  0.12255  0.24861  Biso   1.000  C
  H132     1.0000 0.51250  0.12847  0.27110  Biso   1.000  H
  C197     1.0000 0.49689  0.21096  0.22380  Biso   1.000  C
  H133     1.0000 0.59428  0.24839  0.22021  Biso   1.000  H
  H134     1.0000 0.75478  0.22348  0.25831  Biso   1.000  H
  C198     1.0000 0.74009  0.16257  0.23321  Biso   1.000  C
  H135     1.0000 0.59697  0.12319  0.22090  Biso   1.000  H
  C199     1.0000 0.68778  0.12652  0.21820  Biso   1.000  C
  C200     1.0000 0.68780  0.12647  0.21820  Biso   1.000  C
  C201     1.0000 0.85408  0.19481  0.24697  Biso   1.000  C
  C202     1.0000 0.85410  0.19477  0.24697  Biso   1.000  C
  H136     1.0000 0.82548  0.24100  0.26750  Biso   1.000  H
  C203     1.0000 0.90971  0.18880  0.24660  Biso   1.000  C
  H137     1.0000 0.99189  0.23190  0.26650  Biso   1.000  H
  H138     1.0000 0.05229  0.38938  0.28341  Biso   1.000  H
  C204     1.0000 0.11458  0.38508  0.30510  Biso   1.000  C
  H139     1.0000 0.04377  0.40548  0.29979  Biso   1.000  H
  H140     1.0000 0.97649  0.22177  0.31730  Biso   1.000  H
  H141     1.0000 0.98188  0.21849  0.31210  Biso   1.000  H
  C205     1.0000 0.07306  0.28136  0.32290  Biso   1.000  C
  C206     1.0000 0.09997  0.39501  0.32259  Biso   1.000  C
  C207     1.0000 0.36329  0.85470  0.40916  Biso   1.000  C
  C208     1.0000 0.28461  0.84149  0.43526  Biso   1.000  C
  C209     1.0000 0.38441  0.06659  0.26030  Biso   1.000  C
  C210     1.0000 0.44308  0.15851  0.23139  Biso   1.000  C
  C211     1.0000 0.44310  0.15846  0.23139  Biso   1.000  C
  H142     1.0000 0.49277  0.24188  0.21489  Biso   1.000  H
  C212     1.0000 0.80359  0.16399  0.23287  Biso   1.000  C
  H143     1.0000 0.68569  0.10039  0.20620  Biso   1.000  H
  H144     1.0000 0.91848  0.16345  0.23659  Biso   1.000  H
  H145     1.0000 0.14679  0.43019  0.30501  Biso   1.000  H
  C213     1.0000 0.12677  0.34056  0.31600  Biso   1.000  C
  C214     1.0000 0.12050  0.34819  0.32420  Biso   1.000  C
  C215     1.0000 0.08520  0.23591  0.33631  Biso   1.000  C
  C216     1.0000 0.08518  0.23586  0.33631  Biso   1.000  C
  H146     1.0000 0.12109  0.43572  0.32990  Biso   1.000  H
  C217     1.0000 0.37309  0.80881  0.41957  Biso   1.000  C
  H147     1.0000 0.38399  0.87153  0.39557  Biso   1.000  H
  H148     1.0000 0.38401  0.87148  0.39557  Biso   1.000  H
  C218     1.0000 0.28590  0.78899  0.44287  Biso   1.000  C
  H149     1.0000 0.25641  0.85440  0.44187  Biso   1.000  H
  H150     1.0000 0.34479  0.05778  0.25211  Biso   1.000  H
  N24      1.0000 0.38518  0.00881  0.26247  Biso   1.000  N
  N25      1.0000 0.38519  0.00876  0.26247  Biso   1.000  N
  H151     1.0000 0.38102  0.08209  0.27490  Biso   1.000  H
  H152     1.0000 0.40201  0.14560  0.22480  Biso   1.000  H
  C219     1.0000 0.80816  0.11967  0.21587  Biso   1.000  C
  H153     1.0000 0.17026  0.35010  0.31871  Biso   1.000  H
  H154     1.0000 0.17028  0.35005  0.31871  Biso   1.000  H
  H155     1.0000 0.16537  0.36150  0.32620  Biso   1.000  H
  H156     1.0000 0.08450  0.20171  0.32690  Biso   1.000  H
  H157     1.0000 0.12929  0.26052  0.34290  Biso   1.000  H
  N26      1.0000 0.03598  0.20406  0.35380  Biso   1.000  N
  H158     1.0000 0.08448  0.20166  0.32690  Biso   1.000  H
  H159     1.0000 0.12926  0.26047  0.34290  Biso   1.000  H
  C220     1.0000 0.42089  0.78831  0.41149  Biso   1.000  C
  C221     1.0000 0.33632  0.77882  0.43767  Biso   1.000  C
  C222     1.0000 0.33629  0.77877  0.43767  Biso   1.000  C
  H160     1.0000 0.25089  0.75812  0.45176  Biso   1.000  H
  H161     1.0000 0.25087  0.75807  0.45176  Biso   1.000  H
  C223     1.0000 0.36290  0.97730  0.28107  Biso   1.000  C
  C224     1.0000 0.40177  0.98488  0.24506  Biso   1.000  C
  C225     1.0000 0.40181  0.98488  0.24506  Biso   1.000  C
  C226     1.0000 0.77218  0.05568  0.21570  Biso   1.000  C
  C227     1.0000 0.85498  0.15161  0.19890  Biso   1.000  C
  C228     1.0000 0.85500  0.15157  0.19890  Biso   1.000  C
  C229     1.0000 0.02791  0.24741  0.36670  Biso   1.000  C
  C230     1.0000 0.00568  0.14178  0.36000  Biso   1.000  C
  C231     1.0000 0.02788  0.24736  0.36670  Biso   1.000  C
  C232     1.0000 0.40131  0.74721  0.39486  Biso   1.000  C
  C233     1.0000 0.40129  0.74716  0.39486  Biso   1.000  C
  C234     1.0000 0.48168  0.81507  0.42294  Biso   1.000  C
  H162     1.0000 0.34589  0.75161  0.44647  Biso   1.000  H
  H163     1.0000 0.34587  0.75156  0.44647  Biso   1.000  H
  H164     1.0000 0.35468  0.99731  0.29307  Biso   1.000  H
  C235     1.0000 0.35168  0.91257  0.28227  Biso   1.000  C
  H165     1.0000 0.35470  0.99726  0.29307  Biso   1.000  H
  H166     1.0000 0.41468  0.00910  0.23196  Biso   1.000  H
  C236     1.0000 0.40000  0.92999  0.24626  Biso   1.000  C
  C237     1.0000 0.77609  0.01468  0.19959  Biso   1.000  C
  H167     1.0000 0.74159  0.03542  0.22710  Biso   1.000  H
  H168     1.0000 0.74157  0.03537  0.22710  Biso   1.000  H
  H169     1.0000 0.88328  0.19770  0.19851  Biso   1.000  H
  H170     1.0000 0.88325  0.19765  0.19851  Biso   1.000  H
  C238     1.0000 0.85611  0.11160  0.18350  Biso   1.000  C
  C239     1.0000 0.98567  0.22529  0.38440  Biso   1.000  C
  C240     1.0000 0.98571  0.22529  0.38440  Biso   1.000  C
  H171     1.0000 0.05137  0.29281  0.36340  Biso   1.000  H
  H172     1.0000 0.05139  0.29276  0.36340  Biso   1.000  H
  C241     1.0000 0.96809  0.11752  0.37590  Biso   1.000  C
  C242     1.0000 0.96806  0.11747  0.37590  Biso   1.000  C
  H173     1.0000 0.01337  0.11267  0.35159  Biso   1.000  H
  N27      1.0000 0.43677  0.72407  0.38424  Biso   1.000  N
  C243     1.0000 0.34079  0.72099  0.38207  Biso   1.000  C
  N28      1.0000 0.53040  0.80210  0.41860  Biso   1.000  N
  C244     1.0000 0.49938  0.85920  0.44036  Biso   1.000  C
  C245     1.0000 0.37120  0.89129  0.26517  Biso   1.000  C
  H174     1.0000 0.33139  0.88557  0.29447  Biso   1.000  H
  H175     1.0000 0.41718  0.91546  0.23497  Biso   1.000  H
  C246     1.0000 0.73848  0.94090  0.20160  Biso   1.000  C
  C247     1.0000 0.82321  0.04672  0.18410  Biso   1.000  C
  C248     1.0000 0.82318  0.04667  0.18410  Biso   1.000  C
  H176     1.0000 0.88257  0.13156  0.17109  Biso   1.000  H
  C249     1.0000 0.95548  0.15739  0.38940  Biso   1.000  C
  H177     1.0000 0.97747  0.25416  0.39280  Biso   1.000  H
  H178     1.0000 0.94807  0.07197  0.37880  Biso   1.000  H
  C250     1.0000 0.40670  0.68909  0.36622  Biso   1.000  C
  H179     1.0000 0.47519  0.73116  0.38866  Biso   1.000  H
  C251     1.0000 0.34359  0.68557  0.36477  Biso   1.000  C
  H180     1.0000 0.30497  0.72740  0.38527  Biso   1.000  H
  H181     1.0000 0.30502  0.72740  0.38527  Biso   1.000  H
  H182     1.0000 0.53130  0.77652  0.40837  Biso   1.000  H
  H183     1.0000 0.53127  0.77647  0.40837  Biso   1.000  H
  C252     1.0000 0.57749  0.83738  0.43346  Biso   1.000  C
  H184     1.0000 0.47378  0.87681  0.44577  Biso   1.000  H
  H185     1.0000 0.47376  0.87676  0.44577  Biso   1.000  H
  C253     1.0000 0.56131  0.87348  0.44847  Biso   1.000  C
  C254     1.0000 0.36559  0.82329  0.26637  Biso   1.000  C
  N29      1.0000 0.75437  0.91820  0.22223  Biso   1.000  N
  H186     1.0000 0.69097  0.92529  0.20110  Biso   1.000  H
  N30      1.0000 0.75441  0.91820  0.22223  Biso   1.000  N
  H187     1.0000 0.74920  0.92158  0.18910  Biso   1.000  H
  H188     1.0000 0.83227  0.02231  0.17380  Biso   1.000  H
  H189     1.0000 0.83229  0.02226  0.17380  Biso   1.000  H
  C255     1.0000 0.91360  0.13200  0.40880  Biso   1.000  C
  C256     1.0000 0.42780  0.66350  0.35096  Biso   1.000  C
  H190     1.0000 0.31091  0.66350  0.35397  Biso   1.000  H
  C257     1.0000 0.63960  0.83601  0.43380  Biso   1.000  C
  C258     1.0000 0.63957  0.83596  0.43380  Biso   1.000  C
  H191     1.0000 0.58528  0.89956  0.46047  Biso   1.000  H
  C259     1.0000 0.32207  0.77549  0.28107  Biso   1.000  C
  C260     1.0000 0.40839  0.81042  0.25416  Biso   1.000  C
  C261     1.0000 0.32211  0.77549  0.28107  Biso   1.000  C
  C262     1.0000 0.40841  0.81037  0.25416  Biso   1.000  C
  C263     1.0000 0.70290  0.86830  0.23356  Biso   1.000  C
  C264     1.0000 0.81730  0.94432  0.22887  Biso   1.000  C
  C265     1.0000 0.81728  0.94428  0.22887  Biso   1.000  C
  C266     1.0000 0.87398  0.15480  0.41520  Biso   1.000  C
  C267     1.0000 0.91137  0.08136  0.42049  Biso   1.000  C
  C268     1.0000 0.38080  0.62593  0.33307  Biso   1.000  C
  C269     1.0000 0.38077  0.62588  0.33307  Biso   1.000  C
  C270     1.0000 0.48949  0.66918  0.35012  Biso   1.000  C
  C271     1.0000 0.65931  0.80519  0.41968  Biso   1.000  C
  C272     1.0000 0.68847  0.88028  0.45081  Biso   1.000  C
  H192     1.0000 0.29401  0.78351  0.28996  Biso   1.000  H
  C273     1.0000 0.32151  0.71649  0.28216  Biso   1.000  C
  H193     1.0000 0.29399  0.78346  0.28996  Biso   1.000  H
  C274     1.0000 0.40170  0.74951  0.25737  Biso   1.000  C
  H194     1.0000 0.43981  0.84149  0.24446  Biso   1.000  H
  C275     1.0000 0.40168  0.74946  0.25737  Biso   1.000  C
  C276     1.0000 0.71919  0.84520  0.25147  Biso   1.000  C
  H195     1.0000 0.65868  0.85122  0.22927  Biso   1.000  H
  H196     1.0000 0.65870  0.85117  0.22927  Biso   1.000  H
  H197     1.0000 0.85158  0.98009  0.22137  Biso   1.000  H
  C277     1.0000 0.82998  0.91859  0.24616  Biso   1.000  C
  H198     1.0000 0.87351  0.18850  0.40700  Biso   1.000  H
  C278     1.0000 0.83460  0.13170  0.43311  Biso   1.000  C
  H199     1.0000 0.87348  0.18845  0.40700  Biso   1.000  H
  C279     1.0000 0.83458  0.13165  0.43311  Biso   1.000  C
  C280     1.0000 0.87298  0.05568  0.43780  Biso   1.000  C
  H200     1.0000 0.93818  0.06389  0.41611  Biso   1.000  H
  C281     1.0000 0.39101  0.64780  0.31226  Biso   1.000  C
  C282     1.0000 0.32459  0.56487  0.33717  Biso   1.000  C
  N31      1.0000 0.53539  0.69599  0.36771  Biso   1.000  N
  C283     1.0000 0.51567  0.64638  0.33367  Biso   1.000  C
  N32      1.0000 0.62419  0.76791  0.40271  Biso   1.000  N
  C284     1.0000 0.72091  0.81120  0.42007  Biso   1.000  C
  C285     1.0000 0.71651  0.94432  0.45097  Biso   1.000  C
  C286     1.0000 0.70341  0.84839  0.46776  Biso   1.000  C
  C287     1.0000 0.71648  0.94428  0.45097  Biso   1.000  C
  N33      1.0000 0.36270  0.70421  0.27027  Biso   1.000  N
  H201     1.0000 0.29112  0.68341  0.29166  Biso   1.000  H
  H202     1.0000 0.29109  0.68336  0.29166  Biso   1.000  H
  H203     1.0000 0.42931  0.73982  0.24887  Biso   1.000  H
  H204     1.0000 0.42929  0.73977  0.24887  Biso   1.000  H
  C288     1.0000 0.78160  0.86800  0.25787  Biso   1.000  C
  H205     1.0000 0.68500  0.81150  0.25967  Biso   1.000  H
  H206     1.0000 0.87427  0.93606  0.25057  Biso   1.000  H
  N34      1.0000 0.83617  0.08180  0.44444  Biso   1.000  N
  H207     1.0000 0.80746  0.14878  0.43740  Biso   1.000  H
  N35      1.0000 0.83621  0.08180  0.44444  Biso   1.000  N
  H208     1.0000 0.80750  0.14878  0.43740  Biso   1.000  H
  H209     1.0000 0.87147  0.01986  0.44530  Biso   1.000  H
  C289     1.0000 0.34559  0.61169  0.29607  Biso   1.000  C
  H210     1.0000 0.42928  0.68782  0.30867  Biso   1.000  H
  H211     1.0000 0.42930  0.68777  0.30867  Biso   1.000  H
  C290     1.0000 0.28278  0.52759  0.32117  Biso   1.000  C
  H212     1.0000 0.31558  0.54922  0.35167  Biso   1.000  H
  H213     1.0000 0.31560  0.54917  0.35167  Biso   1.000  H
  H214     1.0000 0.53149  0.71301  0.37987  Biso   1.000  H
  C291     1.0000 0.58838  0.68850  0.36066  Biso   1.000  C
  H215     1.0000 0.53147  0.71296  0.37987  Biso   1.000  H
  C292     1.0000 0.57638  0.65822  0.34037  Biso   1.000  C
  C293     1.0000 0.57639  0.65817  0.34037  Biso   1.000  C
  H216     1.0000 0.49487  0.62647  0.32037  Biso   1.000  H
  C294     1.0000 0.66228  0.74520  0.39146  Biso   1.000  C
  H217     1.0000 0.58448  0.75900  0.39917  Biso   1.000  H
  C295     1.0000 0.72389  0.77402  0.40336  Biso   1.000  C
  C296     1.0000 0.72386  0.77397  0.40336  Biso   1.000  C
  H218     1.0000 0.75500  0.83650  0.43006  Biso   1.000  H
  H219     1.0000 0.68557  0.80230  0.46817  Biso   1.000  H
  C297     1.0000 0.74452  0.88840  0.48316  Biso   1.000  C
  C298     1.0000 0.76141  0.98532  0.46706  Biso   1.000  C
  H220     1.0000 0.70617  0.96458  0.43957  Biso   1.000  H
  C299     1.0000 0.76139  0.98527  0.46706  Biso   1.000  C
  C300     1.0000 0.35749  0.63669  0.27217  Biso   1.000  C
  C301     1.0000 0.79807  0.84256  0.27727  Biso   1.000  C
  C302     1.0000 0.79758  0.05910  0.46507  Biso   1.000  C
  C303     1.0000 0.29211  0.55871  0.30026  Biso   1.000  C
  H221     1.0000 0.24940  0.48371  0.32356  Biso   1.000  H
  C304     1.0000 0.64599  0.71169  0.37337  Biso   1.000  C
  H222     1.0000 0.60467  0.64770  0.33257  Biso   1.000  H
  H223     1.0000 0.60472  0.64770  0.33257  Biso   1.000  H
  H224     1.0000 0.75999  0.76810  0.40017  Biso   1.000  H
  H225     1.0000 0.75099  0.86839  0.49556  Biso   1.000  H
  C305     1.0000 0.77649  0.95328  0.48256  Biso   1.000  C
  H226     1.0000 0.39832  0.63963  0.26676  Biso   1.000  H
  H227     1.0000 0.32088  0.60489  0.26307  Biso   1.000  H
  H228     1.0000 0.39830  0.63958  0.26676  Biso   1.000  H
  C306     1.0000 0.76037  0.77471  0.28227  Biso   1.000  C
  C307     1.0000 0.85057  0.88248  0.29077  Biso   1.000  C
  C308     1.0000 0.76041  0.77471  0.28227  Biso   1.000  C
  H229     1.0000 0.82760  0.07838  0.47757  Biso   1.000  H
  H230     1.0000 0.76566  0.07466  0.46557  Biso   1.000  H
  H231     1.0000 0.25857  0.53977  0.28956  Biso   1.000  H
  C309     1.0000 0.69739  0.69560  0.36617  Biso   1.000  C
  C310     1.0000 0.68451  0.69061  0.35886  Biso   1.000  C
  H232     1.0000 0.80996  0.97769  0.49286  Biso   1.000  H
  H233     1.0000 0.81000  0.97769  0.49286  Biso   1.000  H
  C311     1.0000 0.78050  0.75259  0.29997  Biso   1.000  C
  H234     1.0000 0.72329  0.74579  0.27387  Biso   1.000  H
  H235     1.0000 0.87608  0.92798  0.28786  Biso   1.000  H
  C312     1.0000 0.86388  0.85817  0.30667  Biso   1.000  C
  C313     1.0000 0.69209  0.63620  0.37206  Biso   1.000  C
  C314     1.0000 0.74867  0.73630  0.35265  Biso   1.000  C
  C315     1.0000 0.74871  0.73630  0.35265  Biso   1.000  C
  C316     1.0000 0.67169  0.62608  0.35776  Biso   1.000  C
  N36      1.0000 0.83189  0.79589  0.31286  Biso   1.000  N
  H236     1.0000 0.75860  0.70719  0.30327  Biso   1.000  H
  H237     1.0000 0.90068  0.88728  0.31506  Biso   1.000  H
  H238     1.0000 0.66290  0.61062  0.38327  Biso   1.000  H
  H239     1.0000 0.66288  0.61057  0.38327  Biso   1.000  H
  C317     1.0000 0.72948  0.61487  0.36157  Biso   1.000  C
  H240     1.0000 0.63827  0.59447  0.36686  Biso   1.000  H
  C318     1.0000 0.79167  0.71859  0.34377  Biso   1.000  C
  H241     1.0000 0.75469  0.77818  0.34936  Biso   1.000  H
  H242     1.0000 0.76339  0.78151  0.35457  Biso   1.000  H
  C319     1.0000 0.70500  0.60499  0.34406  Biso   1.000  C
  C320     1.0000 0.84929  0.76409  0.33036  Biso   1.000  C
  H243     1.0000 0.71661  0.56981  0.36167  Biso   1.000  H
  C321     1.0000 0.78618  0.65939  0.35067  Biso   1.000  C
  H244     1.0000 0.71658  0.56976  0.36167  Biso   1.000  H
  C322     1.0000 0.77231  0.65181  0.34246  Biso   1.000  C
  H245     1.0000 0.68537  0.56428  0.33676  Biso   1.000  H
  H246     1.0000 0.88279  0.79829  0.33977  Biso   1.000  H
  H247     1.0000 0.86877  0.73948  0.32377  Biso   1.000  H
  H248     1.0000 0.82021  0.64990  0.34797  Biso   1.000  H
  H249     1.0000 0.80391  0.63850  0.34047  Biso   1.000  H
  C323     1.0000 0.84838  0.70338  0.53224  Biso   1.000  C
  C324     1.0000 0.88838  0.74447  0.51684  Biso   1.000  C
  C325     1.0000 0.88031  0.68851  0.54919  Biso   1.000  C
  H250     1.0000 0.80228  0.68557  0.53183  Biso   1.000  H
  C326     1.0000 0.95327  0.77647  0.51744  Biso   1.000  C
  H251     1.0000 0.86841  0.75098  0.50444  Biso   1.000  H
  H252     1.0000 0.86837  0.75098  0.50444  Biso   1.000  H
  C327     1.0000 0.94430  0.71649  0.54903  Biso   1.000  C
  C328     1.0000 0.83598  0.63958  0.56620  Biso   1.000  C
  H253     1.0000 0.97770  0.80998  0.50714  Biso   1.000  H
  C329     1.0000 0.98531  0.76140  0.53294  Biso   1.000  C
  H254     1.0000 0.96456  0.70617  0.56043  Biso   1.000  H
  C330     1.0000 0.83739  0.57750  0.56654  Biso   1.000  C
  C331     1.0000 0.80520  0.65930  0.58032  Biso   1.000  C
  C332     1.0000 0.05913  0.79761  0.53493  Biso   1.000  C
  C333     1.0000 0.05909  0.79761  0.53493  Biso   1.000  C
  N37      1.0000 0.80210  0.53038  0.58140  Biso   1.000  N
  C334     1.0000 0.87348  0.56130  0.55153  Biso   1.000  C
  N38      1.0000 0.76789  0.62417  0.59729  Biso   1.000  N
  C335     1.0000 0.81117  0.72089  0.57993  Biso   1.000  C
  H255     1.0000 0.07470  0.76571  0.53443  Biso   1.000  H
  H256     1.0000 0.07840  0.82760  0.52243  Biso   1.000  H
  N39      1.0000 0.08178  0.83621  0.55556  Biso   1.000  N
  H257     1.0000 0.77650  0.53131  0.59163  Biso   1.000  H
  C336     1.0000 0.81508  0.48170  0.57706  Biso   1.000  C
  H258     1.0000 0.89958  0.58528  0.53953  Biso   1.000  H
  C337     1.0000 0.85919  0.49941  0.55964  Biso   1.000  C
  C338     1.0000 0.74517  0.66228  0.60854  Biso   1.000  C
  H259     1.0000 0.75899  0.58449  0.60083  Biso   1.000  H
  C339     1.0000 0.77398  0.72388  0.59664  Biso   1.000  C
  H260     1.0000 0.83648  0.75499  0.56994  Biso   1.000  H
  C340     1.0000 0.13168  0.83459  0.56689  Biso   1.000  C
  C341     1.0000 0.05568  0.87300  0.56220  Biso   1.000  C
  C342     1.0000 0.78828  0.42089  0.58851  Biso   1.000  C
  H261     1.0000 0.87679  0.47378  0.55423  Biso   1.000  H
  C343     1.0000 0.71169  0.64599  0.62663  Biso   1.000  C
  H262     1.0000 0.76809  0.75998  0.59983  Biso   1.000  H
  C344     1.0000 0.15481  0.87398  0.58480  Biso   1.000  C
  H263     1.0000 0.14881  0.80749  0.56260  Biso   1.000  H
  C345     1.0000 0.15477  0.87398  0.58480  Biso   1.000  C
  H264     1.0000 0.14877  0.80749  0.56260  Biso   1.000  H
  H265     1.0000 0.01989  0.87148  0.55470  Biso   1.000  H
  C346     1.0000 0.08141  0.91140  0.57951  Biso   1.000  C
  C347     1.0000 0.80878  0.37309  0.58043  Biso   1.000  C
  C348     1.0000 0.74720  0.40127  0.60514  Biso   1.000  C
  C349     1.0000 0.74716  0.40127  0.60514  Biso   1.000  C
  C350     1.0000 0.68853  0.58841  0.63934  Biso   1.000  C
  C351     1.0000 0.69562  0.69741  0.63383  Biso   1.000  C
  C352     1.0000 0.68849  0.58841  0.63934  Biso   1.000  C
  C353     1.0000 0.69558  0.69741  0.63383  Biso   1.000  C
  C354     1.0000 0.69061  0.68449  0.64114  Biso   1.000  C
  C355     1.0000 0.13200  0.91360  0.59120  Biso   1.000  C
  H266     1.0000 0.18850  0.87349  0.59300  Biso   1.000  H
  H267     1.0000 0.06386  0.93816  0.58389  Biso   1.000  H
  C356     1.0000 0.85469  0.36331  0.59084  Biso   1.000  C
  C357     1.0000 0.77878  0.33630  0.56233  Biso   1.000  C
  C358     1.0000 0.72099  0.34080  0.61793  Biso   1.000  C
  N40      1.0000 0.72407  0.43679  0.61576  Biso   1.000  N
  N41      1.0000 0.69600  0.53537  0.63229  Biso   1.000  N
  C359     1.0000 0.65820  0.57637  0.65963  Biso   1.000  C
  C360     1.0000 0.63618  0.69208  0.62794  Biso   1.000  C
  C361     1.0000 0.73630  0.74868  0.64735  Biso   1.000  C
  C362     1.0000 0.62607  0.67168  0.64224  Biso   1.000  C
  C363     1.0000 0.15739  0.95548  0.61060  Biso   1.000  C
  H268     1.0000 0.87152  0.38400  0.60443  Biso   1.000  H
  C364     1.0000 0.87737  0.32368  0.58194  Biso   1.000  C
  H269     1.0000 0.87148  0.38400  0.60443  Biso   1.000  H
  H270     1.0000 0.75158  0.34589  0.55353  Biso   1.000  H
  C365     1.0000 0.78900  0.28591  0.55713  Biso   1.000  C
  C366     1.0000 0.68561  0.34359  0.63523  Biso   1.000  C
  H271     1.0000 0.72740  0.30499  0.61473  Biso   1.000  H
  C367     1.0000 0.68907  0.40670  0.63378  Biso   1.000  C
  H272     1.0000 0.73120  0.47520  0.61134  Biso   1.000  H
  H273     1.0000 0.71300  0.53151  0.62013  Biso   1.000  H
  C368     1.0000 0.66920  0.48948  0.64988  Biso   1.000  C
  H274     1.0000 0.64770  0.60470  0.66743  Biso   1.000  H
  C369     1.0000 0.64638  0.51571  0.66633  Biso   1.000  C
  C370     1.0000 0.61490  0.72950  0.63843  Biso   1.000  C
  H275     1.0000 0.61061  0.66287  0.61673  Biso   1.000  H
  H276     1.0000 0.61056  0.66287  0.61673  Biso   1.000  H
  H277     1.0000 0.59451  0.63831  0.63314  Biso   1.000  H
  H278     1.0000 0.77821  0.75470  0.65064  Biso   1.000  H
  C371     1.0000 0.71861  0.79169  0.65623  Biso   1.000  C
  C372     1.0000 0.71857  0.79169  0.65623  Biso   1.000  C
  H279     1.0000 0.78150  0.76341  0.64543  Biso   1.000  H
  C373     1.0000 0.60497  0.70499  0.65594  Biso   1.000  C
  C374     1.0000 0.22527  0.98567  0.61560  Biso   1.000  C
  C375     1.0000 0.11752  0.96811  0.62410  Biso   1.000  C
  C376     1.0000 0.11747  0.96811  0.62410  Biso   1.000  C
  C377     1.0000 0.84152  0.28459  0.56474  Biso   1.000  C
  C378     1.0000 0.93342  0.31781  0.59363  Biso   1.000  C
  C379     1.0000 0.84147  0.28459  0.56474  Biso   1.000  C
  C380     1.0000 0.93337  0.31781  0.59363  Biso   1.000  C
  H280     1.0000 0.75810  0.25088  0.54824  Biso   1.000  H
  H281     1.0000 0.66351  0.31091  0.64603  Biso   1.000  H
  C381     1.0000 0.66348  0.42779  0.64904  Biso   1.000  C
  H282     1.0000 0.62649  0.49491  0.67963  Biso   1.000  H
  H283     1.0000 0.56980  0.71659  0.63833  Biso   1.000  H
  C382     1.0000 0.65939  0.78621  0.64933  Biso   1.000  C
  C383     1.0000 0.65179  0.77226  0.65754  Biso   1.000  C
  C384     1.0000 0.76410  0.84927  0.66964  Biso   1.000  C
  H284     1.0000 0.56428  0.68537  0.66324  Biso   1.000  H
  H285     1.0000 0.25419  0.97750  0.60720  Biso   1.000  H
  C385     1.0000 0.24740  0.02789  0.63330  Biso   1.000  C
  H286     1.0000 0.07201  0.94810  0.62120  Biso   1.000  H
  C386     1.0000 0.14177  0.00568  0.64000  Biso   1.000  C
  H287     1.0000 0.85441  0.25641  0.55813  Biso   1.000  H
  H288     1.0000 0.85437  0.25641  0.55813  Biso   1.000  H
  N42      1.0000 0.99117  0.37637  0.59580  Biso   1.000  N
  H289     1.0000 0.91789  0.29888  0.60823  Biso   1.000  H
  H290     1.0000 0.94220  0.28699  0.58543  Biso   1.000  H
  C387     1.0000 0.62586  0.38077  0.66693  Biso   1.000  C
  H291     1.0000 0.64991  0.82021  0.65203  Biso   1.000  H
  H292     1.0000 0.63848  0.80387  0.65953  Biso   1.000  H
  H293     1.0000 0.73950  0.86879  0.67623  Biso   1.000  H
  N43      1.0000 0.79588  0.83190  0.68714  Biso   1.000  N
  H294     1.0000 0.79827  0.88278  0.66023  Biso   1.000  H
  N44      1.0000 0.20407  0.03596  0.64620  Biso   1.000  N
  H295     1.0000 0.29278  0.05137  0.63660  Biso   1.000  H
  H296     1.0000 0.11269  0.01336  0.64841  Biso   1.000  H
  C388     1.0000 0.02270  0.38562  0.61440  Biso   1.000  C
  C389     1.0000 0.01511  0.41688  0.57841  Biso   1.000  C
  C390     1.0000 0.01507  0.41688  0.57841  Biso   1.000  C
  C391     1.0000 0.56490  0.32461  0.66283  Biso   1.000  C
  C392     1.0000 0.64779  0.39100  0.68774  Biso   1.000  C
  C393     1.0000 0.75258  0.78048  0.70003  Biso   1.000  C
  C394     1.0000 0.85818  0.86390  0.69333  Biso   1.000  C
  C395     1.0000 0.23588  0.08518  0.66369  Biso   1.000  C
  C396     1.0000 0.08740  0.43909  0.61560  Biso   1.000  C
  H297     1.0000 0.00269  0.35739  0.62640  Biso   1.000  H
  H298     1.0000 0.99086  0.40558  0.56531  Biso   1.000  H
  C397     1.0000 0.06998  0.47001  0.57960  Biso   1.000  C
  H299     1.0000 0.54921  0.31561  0.64833  Biso   1.000  H
  C398     1.0000 0.52759  0.28278  0.67883  Biso   1.000  C
  C399     1.0000 0.61170  0.34560  0.70393  Biso   1.000  C
  H300     1.0000 0.68779  0.42931  0.69133  Biso   1.000  H
  H301     1.0000 0.70718  0.75856  0.69673  Biso   1.000  H
  C400     1.0000 0.77469  0.76037  0.71773  Biso   1.000  C
  C401     1.0000 0.88250  0.85059  0.70923  Biso   1.000  C
  H302     1.0000 0.88730  0.90069  0.68494  Biso   1.000  H
  C402     1.0000 0.28140  0.07310  0.67710  Biso   1.000  C
  H303     1.0000 0.20168  0.08449  0.67310  Biso   1.000  H
  H304     1.0000 0.26050  0.12926  0.65710  Biso   1.000  H
  H305     1.0000 0.26046  0.12926  0.65710  Biso   1.000  H
  C403     1.0000 0.10869  0.47989  0.59850  Biso   1.000  C
  H306     1.0000 0.11439  0.44579  0.62779  Biso   1.000  H
  H307     1.0000 0.08447  0.50171  0.56830  Biso   1.000  H
  H308     1.0000 0.48370  0.24941  0.67644  Biso   1.000  H
  C404     1.0000 0.55867  0.29208  0.69974  Biso   1.000  C
  C405     1.0000 0.63667  0.35749  0.72783  Biso   1.000  C
  H309     1.0000 0.74581  0.72329  0.72613  Biso   1.000  H
  C406     1.0000 0.84257  0.79809  0.72273  Biso   1.000  C
  H310     1.0000 0.92800  0.87608  0.71214  Biso   1.000  H
  C407     1.0000 0.34060  0.12677  0.68400  Biso   1.000  C
  C408     1.0000 0.26371  0.01238  0.68597  Biso   1.000  C
  C409     1.0000 0.34056  0.12677  0.68400  Biso   1.000  C
  C410     1.0000 0.26367  0.01238  0.68597  Biso   1.000  C
  C411     1.0000 0.34819  0.12050  0.67580  Biso   1.000  C
  C412     1.0000 0.17669  0.54227  0.59970  Biso   1.000  C
  C413     1.0000 0.17665  0.54227  0.59970  Biso   1.000  C
  H311     1.0000 0.53978  0.25861  0.71044  Biso   1.000  H
  N45      1.0000 0.70417  0.36267  0.72973  Biso   1.000  N
  H312     1.0000 0.60490  0.32089  0.73693  Biso   1.000  H
  H313     1.0000 0.63962  0.39829  0.73324  Biso   1.000  H
  H314     1.0000 0.63957  0.39829  0.73324  Biso   1.000  H
  C414     1.0000 0.86801  0.78161  0.74213  Biso   1.000  C
  C415     1.0000 0.38510  0.11458  0.69490  Biso   1.000  C
  H315     1.0000 0.35006  0.17026  0.68129  Biso   1.000  H
  C416     1.0000 0.38506  0.11458  0.69490  Biso   1.000  C
  C417     1.0000 0.39501  0.10000  0.67741  Biso   1.000  C
  H316     1.0000 0.36147  0.16537  0.67380  Biso   1.000  H
  H317     1.0000 0.22178  0.97647  0.68270  Biso   1.000  H
  C418     1.0000 0.30942  0.99389  0.69221  Biso   1.000  C
  H318     1.0000 0.21852  0.98190  0.68790  Biso   1.000  H
  C419     1.0000 0.30437  0.00176  0.69949  Biso   1.000  C
  C420     1.0000 0.22448  0.54658  0.61440  Biso   1.000  C
  C421     1.0000 0.18960  0.59800  0.58751  Biso   1.000  C
  C422     1.0000 0.71650  0.32148  0.71784  Biso   1.000  C
  C423     1.0000 0.74950  0.40171  0.74263  Biso   1.000  C
  C424     1.0000 0.84518  0.71918  0.74853  Biso   1.000  C
  C425     1.0000 0.91860  0.82999  0.75384  Biso   1.000  C
  C426     1.0000 0.36380  0.05587  0.70541  Biso   1.000  C
  H319     1.0000 0.43018  0.14677  0.69499  Biso   1.000  H
  C427     1.0000 0.36376  0.05587  0.70541  Biso   1.000  C
  C428     1.0000 0.37391  0.04560  0.69111  Biso   1.000  C
  H320     1.0000 0.43568  0.12109  0.67010  Biso   1.000  H
  C429     1.0000 0.28831  0.93430  0.70670  Biso   1.000  C
  C430     1.0000 0.28827  0.93430  0.70670  Biso   1.000  C
  C431     1.0000 0.28351  0.60499  0.61550  Biso   1.000  C
  H321     1.0000 0.21647  0.51047  0.62331  Biso   1.000  H
  C432     1.0000 0.28347  0.60499  0.61550  Biso   1.000  C
  H322     1.0000 0.15848  0.59829  0.57781  Biso   1.000  H
  C433     1.0000 0.25052  0.65220  0.59070  Biso   1.000  C
  C434     1.0000 0.25047  0.65220  0.59070  Biso   1.000  C
  C435     1.0000 0.77550  0.32211  0.71893  Biso   1.000  C
  H323     1.0000 0.68338  0.29110  0.70834  Biso   1.000  H
  C436     1.0000 0.81039  0.40842  0.74584  Biso   1.000  C
  H324     1.0000 0.73978  0.42931  0.75113  Biso   1.000  H
  H325     1.0000 0.81148  0.68498  0.74033  Biso   1.000  H
  C437     1.0000 0.86827  0.70289  0.76644  Biso   1.000  C
  H326     1.0000 0.93608  0.87427  0.74943  Biso   1.000  H
  C438     1.0000 0.94431  0.81727  0.77113  Biso   1.000  C
  C439     1.0000 0.94427  0.81727  0.77113  Biso   1.000  C
  H327     1.0000 0.38938  0.05230  0.71659  Biso   1.000  H
  H328     1.0000 0.40551  0.04379  0.70021  Biso   1.000  H
  C440     1.0000 0.25478  0.91708  0.72480  Biso   1.000  C
  C441     1.0000 0.31149  0.89991  0.69401  Biso   1.000  C
  H329     1.0000 0.31659  0.60768  0.62501  Biso   1.000  H
  N46      1.0000 0.29576  0.65847  0.60360  Biso   1.000  N
  H330     1.0000 0.26017  0.68948  0.58219  Biso   1.000  H
  C442     1.0000 0.82330  0.36561  0.73363  Biso   1.000  C
  H331     1.0000 0.78346  0.29398  0.71004  Biso   1.000  H
  H332     1.0000 0.84149  0.43978  0.75554  Biso   1.000  H
  N47      1.0000 0.91817  0.75441  0.77777  Biso   1.000  N
  H333     1.0000 0.85118  0.65871  0.77073  Biso   1.000  H
  H334     1.0000 0.98006  0.85157  0.77863  Biso   1.000  H
  N48      1.0000 0.23209  0.85627  0.73606  Biso   1.000  N
  C443     1.0000 0.22599  0.94991  0.73671  Biso   1.000  C
  N49      1.0000 0.30398  0.83939  0.70103  Biso   1.000  N
  C444     1.0000 0.34182  0.91820  0.67370  Biso   1.000  C
  C445     1.0000 0.34178  0.91820  0.67370  Biso   1.000  C
  C446     1.0000 0.36328  0.72079  0.60550  Biso   1.000  C
  C447     1.0000 0.89130  0.37119  0.73483  Biso   1.000  C
  C448     1.0000 0.94090  0.73851  0.79840  Biso   1.000  C
  C449     1.0000 0.19476  0.85406  0.75303  Biso   1.000  C
  H335     1.0000 0.24098  0.82549  0.73250  Biso   1.000  H
  C450     1.0000 0.18881  0.90969  0.75340  Biso   1.000  C
  H336     1.0000 0.23190  0.99188  0.73350  Biso   1.000  H
  C451     1.0000 0.18877  0.90969  0.75340  Biso   1.000  C
  C452     1.0000 0.33080  0.82031  0.68345  Biso   1.000  C
  H337     1.0000 0.28697  0.81850  0.71319  Biso   1.000  H
  H338     1.0000 0.35228  0.95700  0.66589  Biso   1.000  H
  C453     1.0000 0.35359  0.86928  0.66700  Biso   1.000  C
  C454     1.0000 0.38831  0.73391  0.62940  Biso   1.000  C
  H339     1.0000 0.36042  0.75871  0.60010  Biso   1.000  H
  H340     1.0000 0.39512  0.71600  0.59640  Biso   1.000  H
  C455     1.0000 0.38827  0.73391  0.62940  Biso   1.000  C
  H341     1.0000 0.36037  0.75871  0.60010  Biso   1.000  H
  H342     1.0000 0.39507  0.71600  0.59640  Biso   1.000  H
  C456     1.0000 0.93002  0.40000  0.75374  Biso   1.000  C
  C457     1.0000 0.91257  0.35171  0.71773  Biso   1.000  C
  C458     1.0000 0.92998  0.40000  0.75374  Biso   1.000  C
  H343     1.0000 0.92157  0.74917  0.81090  Biso   1.000  H
  H344     1.0000 0.92532  0.69100  0.79890  Biso   1.000  H
  H345     1.0000 0.92528  0.69100  0.79890  Biso   1.000  H
  C459     1.0000 0.01468  0.77608  0.80041  Biso   1.000  C
  C460     1.0000 0.16397  0.80357  0.76713  Biso   1.000  C
  H346     1.0000 0.16351  0.91850  0.76341  Biso   1.000  H
  H347     1.0000 0.16347  0.91850  0.76341  Biso   1.000  H
  C461     1.0000 0.33647  0.76429  0.68431  Biso   1.000  C
  H348     1.0000 0.37348  0.86840  0.65370  Biso   1.000  H
  C462     1.0000 0.44130  0.73337  0.63361  Biso   1.000  C
  C463     1.0000 0.35220  0.74320  0.64561  Biso   1.000  C
  C464     1.0000 0.44125  0.73337  0.63361  Biso   1.000  C
  H349     1.0000 0.88560  0.33141  0.70553  Biso   1.000  H
  C465     1.0000 0.97728  0.36292  0.71893  Biso   1.000  C
  C466     1.0000 0.98491  0.40181  0.75494  Biso   1.000  C
  H350     1.0000 0.91548  0.41717  0.76503  Biso   1.000  H
  C467     1.0000 0.05569  0.77217  0.78430  Biso   1.000  C
  C468     1.0000 0.04667  0.82319  0.81590  Biso   1.000  C
  C469     1.0000 0.16260  0.74007  0.76679  Biso   1.000  C
  C470     1.0000 0.11970  0.80817  0.78413  Biso   1.000  C
  C471     1.0000 0.16255  0.74007  0.76679  Biso   1.000  C
  C472     1.0000 0.11966  0.80817  0.78413  Biso   1.000  C
  C473     1.0000 0.31086  0.71757  0.69954  Biso   1.000  C
  C474     1.0000 0.37410  0.75489  0.66640  Biso   1.000  C
  C475     1.0000 0.47237  0.75519  0.65450  Biso   1.000  C
  H351     1.0000 0.46019  0.71879  0.62290  Biso   1.000  H
  H352     1.0000 0.31219  0.74149  0.64199  Biso   1.000  H
  H353     1.0000 0.99732  0.35470  0.70693  Biso   1.000  H
  H354     1.0000 0.99728  0.35470  0.70693  Biso   1.000  H
  N50      1.0000 0.00879  0.38518  0.73753  Biso   1.000  N
  H355     1.0000 0.00909  0.41468  0.76804  Biso   1.000  H
  C476     1.0000 0.11158  0.85607  0.81650  Biso   1.000  C
  H356     1.0000 0.02232  0.83229  0.82620  Biso   1.000  H
  H357     1.0000 0.02228  0.83229  0.82620  Biso   1.000  H
  H358     1.0000 0.03540  0.74159  0.77290  Biso   1.000  H
  N51      1.0000 0.19788  0.72828  0.75194  Biso   1.000  N
  C477     1.0000 0.12649  0.68777  0.78180  Biso   1.000  C
  C478     1.0000 0.15159  0.85499  0.80110  Biso   1.000  C
  N52      1.0000 0.27588  0.71267  0.71757  Biso   1.000  N
  C479     1.0000 0.31437  0.65798  0.69810  Biso   1.000  C
  C480     1.0000 0.43509  0.75969  0.67049  Biso   1.000  C
  H359     1.0000 0.51627  0.76571  0.65691  Biso   1.000  H
  C481     1.0000 0.06661  0.38439  0.73970  Biso   1.000  C
  C482     1.0000 0.06657  0.38439  0.73970  Biso   1.000  C
  H360     1.0000 0.13157  0.88259  0.82891  Biso   1.000  H
  C483     1.0000 0.18492  0.66659  0.75627  Biso   1.000  C
  H361     1.0000 0.22347  0.75480  0.74169  Biso   1.000  H
  C484     1.0000 0.18487  0.66659  0.75627  Biso   1.000  C
  C485     1.0000 0.14078  0.64017  0.77371  Biso   1.000  C
  H362     1.0000 0.10035  0.68567  0.79380  Biso   1.000  H
  H363     1.0000 0.19767  0.88327  0.80149  Biso   1.000  H
  C486     1.0000 0.25282  0.65411  0.72820  Biso   1.000  C
  C487     1.0000 0.25278  0.65411  0.72820  Biso   1.000  C
  H364     1.0000 0.26878  0.74398  0.72200  Biso   1.000  H
  H365     1.0000 0.33650  0.64741  0.68730  Biso   1.000  H
  C488     1.0000 0.27900  0.61977  0.71540  Biso   1.000  C
  C489     1.0000 0.27895  0.61977  0.71540  Biso   1.000  C
  H366     1.0000 0.45078  0.76639  0.68500  Biso   1.000  H
  H367     1.0000 0.08210  0.38097  0.72510  Biso   1.000  H
  H368     1.0000 0.05780  0.34482  0.74789  Biso   1.000  H
  C490     1.0000 0.12256  0.44628  0.75139  Biso   1.000  C
  H369     1.0000 0.08206  0.38097  0.72510  Biso   1.000  H
  C491     1.0000 0.21168  0.63259  0.74482  Biso   1.000  C
  H370     1.0000 0.12320  0.59697  0.77910  Biso   1.000  H
  H371     1.0000 0.12316  0.59697  0.77910  Biso   1.000  H
  H372     1.0000 0.27257  0.57759  0.71860  Biso   1.000  H
  C492     1.0000 0.15851  0.44310  0.76861  Biso   1.000  C
  C493     1.0000 0.14529  0.50861  0.74250  Biso   1.000  C
  C494     1.0000 0.19118  0.56429  0.75290  Biso   1.000  C
  C495     1.0000 0.21098  0.49687  0.77620  Biso   1.000  C
  H373     1.0000 0.14558  0.40201  0.77520  Biso   1.000  H
  H374     1.0000 0.12850  0.51248  0.72890  Biso   1.000  H
  H375     1.0000 0.12845  0.51248  0.72890  Biso   1.000  H
  C496     1.0000 0.22121  0.55749  0.77100  Biso   1.000  C
  C497     1.0000 0.22116  0.55749  0.77100  Biso   1.000  C
  H376     1.0000 0.24187  0.49281  0.78511  Biso   1.000  H
  H377     1.0000 0.24837  0.59428  0.77979  Biso   1.000  H
  N53      1.0000 0.90411  0.45460  0.27667  Biso   1.000  N
  H378     1.0000 0.91210  0.46551  0.30927  Biso   1.000  H
  H379     1.0000 0.91620  0.52701  0.29707  Biso   1.000  H
  C498     1.0000 0.00451  0.53161  0.29945  Biso   1.000  C
  C499     1.0000 0.93890  0.42691  0.26886  Biso   1.000  C
  C500     1.0000 0.85099  0.44658  0.26736  Biso   1.000  C
  C501     1.0000 0.93142  0.49482  0.29657  Biso   1.000  C
  C502     1.0000 0.02971  0.51209  0.31616  Biso   1.000  C
  C503     1.0000 0.04291  0.57799  0.28436  Biso   1.000  C
  C504     1.0000 0.02966  0.51209  0.31616  Biso   1.000  C
  C505     1.0000 0.04287  0.57799  0.28436  Biso   1.000  C
  C506     1.0000 0.91791  0.38831  0.25117  Biso   1.000  C
  H380     1.0000 0.97798  0.43498  0.27586  Biso   1.000  H
  C507     1.0000 0.82701  0.41081  0.24987  Biso   1.000  C
  H381     1.0000 0.82910  0.46737  0.27346  Biso   1.000  H
  H382     1.0000 0.82906  0.46737  0.27346  Biso   1.000  H
  C508     1.0000 0.09749  0.54071  0.31637  Biso   1.000  C
  H383     1.0000 0.00271  0.48131  0.32677  Biso   1.000  H
  C509     1.0000 0.10698  0.60969  0.28556  Biso   1.000  C
  H384     1.0000 0.02239  0.58728  0.27277  Biso   1.000  H
  C510     1.0000 0.85872  0.37882  0.24046  Biso   1.000  C
  H385     1.0000 0.94092  0.36781  0.24587  Biso   1.000  H
  H386     1.0000 0.94087  0.36781  0.24587  Biso   1.000  H
  H387     1.0000 0.78831  0.40621  0.24347  Biso   1.000  H
  C511     1.0000 0.13710  0.59350  0.30266  Biso   1.000  C
  H388     1.0000 0.11730  0.52407  0.32586  Biso   1.000  H
  H389     1.0000 0.11726  0.52407  0.32586  Biso   1.000  H
  C512     1.0000 0.15268  0.66008  0.26964  Biso   1.000  C
  C513     1.0000 0.83358  0.34041  0.22017  Biso   1.000  C
  H390     1.0000 0.18322  0.61810  0.30476  Biso   1.000  H
  H391     1.0000 0.18317  0.61810  0.30476  Biso   1.000  H
  C514     1.0000 0.15521  0.72031  0.26948  Biso   1.000  C
  C515     1.0000 0.15517  0.72031  0.26948  Biso   1.000  C
  C516     1.0000 0.18418  0.63978  0.25497  Biso   1.000  C
  C517     1.0000 0.76679  0.30910  0.21467  Biso   1.000  C
  C518     1.0000 0.87630  0.33009  0.20617  Biso   1.000  C
  N54      1.0000 0.18960  0.77128  0.25568  Biso   1.000  N
  C519     1.0000 0.11978  0.73978  0.28337  Biso   1.000  C
  N55      1.0000 0.22689  0.67970  0.23902  Biso   1.000  N
  C520     1.0000 0.17736  0.57588  0.25426  Biso   1.000  C
  C521     1.0000 0.74769  0.27329  0.19567  Biso   1.000  C
  H392     1.0000 0.73601  0.31238  0.22377  Biso   1.000  H
  H393     1.0000 0.73597  0.31238  0.22377  Biso   1.000  H
  C522     1.0000 0.85411  0.29198  0.18887  Biso   1.000  C
  C523     1.0000 0.85406  0.29198  0.18887  Biso   1.000  C
  H394     1.0000 0.92167  0.35118  0.20937  Biso   1.000  H
  C524     1.0000 0.17689  0.81967  0.25983  Biso   1.000  C
  H395     1.0000 0.21630  0.77241  0.24556  Biso   1.000  H
  C525     1.0000 0.13279  0.79858  0.27837  Biso   1.000  C
  H396     1.0000 0.09112  0.71380  0.29466  Biso   1.000  H
  H397     1.0000 0.09107  0.71380  0.29466  Biso   1.000  H
  H398     1.0000 0.23780  0.72040  0.23617  Biso   1.000  H
  C526     1.0000 0.24849  0.64247  0.22861  Biso   1.000  C
  H399     1.0000 0.14970  0.53939  0.26307  Biso   1.000  H
  C527     1.0000 0.21818  0.57779  0.23847  Biso   1.000  C
  H400     1.0000 0.14966  0.53939  0.26307  Biso   1.000  H
  N56      1.0000 0.78698  0.26399  0.18327  Biso   1.000  N
  H401     1.0000 0.70321  0.25431  0.19137  Biso   1.000  H
  H402     1.0000 0.88250  0.28351  0.18027  Biso   1.000  H
  C528     1.0000 0.20331  0.88107  0.24814  Biso   1.000  C
  C529     1.0000 0.20327  0.88107  0.24814  Biso   1.000  C
  H403     1.0000 0.11659  0.82329  0.28556  Biso   1.000  H
  C530     1.0000 0.29080  0.65998  0.21109  Biso   1.000  C
  C531     1.0000 0.29076  0.65998  0.21109  Biso   1.000  C
  H404     1.0000 0.22567  0.54320  0.23457  Biso   1.000  H
  C532     1.0000 0.76436  0.22138  0.16337  Biso   1.000  C
  C533     1.0000 0.17928  0.92437  0.25567  Biso   1.000  C
  C534     1.0000 0.24259  0.89981  0.22989  Biso   1.000  C
  C535     1.0000 0.31419  0.71820  0.20006  Biso   1.000  C
  C536     1.0000 0.30791  0.61209  0.20200  Biso   1.000  C
  C537     1.0000 0.30786  0.61209  0.20200  Biso   1.000  C
  C538     1.0000 0.71772  0.23121  0.15027  Biso   1.000  C
  H405     1.0000 0.74359  0.17500  0.16777  Biso   1.000  H
  H406     1.0000 0.80292  0.23121  0.15427  Biso   1.000  H
  H407     1.0000 0.80288  0.23121  0.15427  Biso   1.000  H
  C539     1.0000 0.13850  0.93728  0.24433  Biso   1.000  C
  C540     1.0000 0.20129  0.95661  0.27576  Biso   1.000  C
  N57      1.0000 0.26721  0.86218  0.22101  Biso   1.000  N
  N58      1.0000 0.26717  0.86218  0.22101  Biso   1.000  N
  C541     1.0000 0.26405  0.95866  0.21807  Biso   1.000  C
  N59      1.0000 0.30667  0.77197  0.20505  Biso   1.000  N
  C542     1.0000 0.35417  0.73909  0.17946  Biso   1.000  C
  C543     1.0000 0.26561  0.55851  0.19077  Biso   1.000  C
  C544     1.0000 0.26557  0.55851  0.19077  Biso   1.000  C
  C545     1.0000 0.37048  0.62437  0.20587  Biso   1.000  C
  C546     1.0000 0.73441  0.29291  0.14256  Biso   1.000  C
  C547     1.0000 0.65308  0.18151  0.14687  Biso   1.000  C
  C548     1.0000 0.11599  0.97980  0.25196  Biso   1.000  C
  H408     1.0000 0.12387  0.91718  0.23057  Biso   1.000  H
  C549     1.0000 0.18031  0.00039  0.28347  Biso   1.000  C
  C550     1.0000 0.18027  0.00039  0.28347  Biso   1.000  C
  H409     1.0000 0.23027  0.94898  0.28436  Biso   1.000  H
  H410     1.0000 0.26147  0.82427  0.22557  Biso   1.000  H
  C551     1.0000 0.30219  0.89800  0.20370  Biso   1.000  C
  C552     1.0000 0.30190  0.95827  0.20226  Biso   1.000  C
  H411     1.0000 0.25359  0.99188  0.22097  Biso   1.000  H
  C553     1.0000 0.30186  0.95827  0.20226  Biso   1.000  C
  C554     1.0000 0.33571  0.82099  0.18991  Biso   1.000  C
  C555     1.0000 0.33567  0.82099  0.18991  Biso   1.000  C
  H412     1.0000 0.28577  0.77407  0.21656  Biso   1.000  H
  C556     1.0000 0.36758  0.79956  0.17423  Biso   1.000  C
  H413     1.0000 0.36759  0.71341  0.17147  Biso   1.000  H
  C557     1.0000 0.28230  0.51350  0.18306  Biso   1.000  C
  H414     1.0000 0.22289  0.55127  0.18797  Biso   1.000  H
  C558     1.0000 0.38779  0.57941  0.19907  Biso   1.000  C
  H415     1.0000 0.40139  0.66331  0.21306  Biso   1.000  H
  C559     1.0000 0.69210  0.30421  0.13134  Biso   1.000  C
  H416     1.0000 0.77706  0.32838  0.14536  Biso   1.000  H
  C560     1.0000 0.61219  0.19159  0.13427  Biso   1.000  C
  H417     1.0000 0.63768  0.14012  0.15357  Biso   1.000  H
  C561     1.0000 0.06598  0.98909  0.23867  Biso   1.000  C
  C562     1.0000 0.13919  0.01121  0.27167  Biso   1.000  C
  H418     1.0000 0.19567  0.02187  0.29696  Biso   1.000  H
  C563     1.0000 0.33779  0.88038  0.18921  Biso   1.000  C
  H419     1.0000 0.32451  0.99188  0.19187  Biso   1.000  H
  H420     1.0000 0.32447  0.99188  0.19187  Biso   1.000  H
  H421     1.0000 0.39346  0.82446  0.16227  Biso   1.000  H
  C564     1.0000 0.23562  0.45700  0.16996  Biso   1.000  C
  C565     1.0000 0.23557  0.45700  0.16996  Biso   1.000  C
  C566     1.0000 0.34685  0.52838  0.18646  Biso   1.000  C
  H422     1.0000 0.42870  0.58420  0.20327  Biso   1.000  H
  C567     1.0000 0.70916  0.36918  0.12224  Biso   1.000  C
  C568     1.0000 0.62950  0.25391  0.12747  Biso   1.000  C
  H423     1.0000 0.57130  0.15548  0.13006  Biso   1.000  H
  N60      1.0000 0.00581  0.92950  0.23590  Biso   1.000  N
  H424     1.0000 0.08489  0.00700  0.22427  Biso   1.000  H
  H425     1.0000 0.05738  0.02129  0.24597  Biso   1.000  H
  H426     1.0000 0.12578  0.04056  0.27677  Biso   1.000  H
  C569     1.0000 0.37641  0.92941  0.17206  Biso   1.000  C
  N61      1.0000 0.21300  0.47701  0.15007  Biso   1.000  N
  H427     1.0000 0.19706  0.42828  0.17906  Biso   1.000  H
  H428     1.0000 0.25638  0.43141  0.16557  Biso   1.000  H
  H429     1.0000 0.36229  0.50240  0.17977  Biso   1.000  H
  C570     1.0000 0.68582  0.40401  0.13327  Biso   1.000  C
  C571     1.0000 0.68578  0.40401  0.13327  Biso   1.000  C
  C572     1.0000 0.75148  0.39398  0.10473  Biso   1.000  C
  H430     1.0000 0.59857  0.26189  0.12026  Biso   1.000  H
  C573     1.0000 0.97170  0.91400  0.21656  Biso   1.000  C
  C574     1.0000 0.97749  0.88498  0.25275  Biso   1.000  C
  C575     1.0000 0.35500  0.91820  0.14993  Biso   1.000  C
  C576     1.0000 0.43702  0.98420  0.17657  Biso   1.000  C
  C577     1.0000 0.43698  0.98420  0.17657  Biso   1.000  C
  C578     1.0000 0.14589  0.43787  0.14447  Biso   1.000  C
  C579     1.0000 0.25229  0.52559  0.13767  Biso   1.000  C
  N62      1.0000 0.69330  0.46531  0.12828  Biso   1.000  N
  C580     1.0000 0.64579  0.38488  0.15386  Biso   1.000  C
  N63      1.0000 0.77309  0.45279  0.09432  Biso   1.000  N
  C581     1.0000 0.78178  0.35959  0.09487  Biso   1.000  C
  C582     1.0000 0.91351  0.85930  0.21347  Biso   1.000  C
  H431     1.0000 0.99040  0.94359  0.20487  Biso   1.000  H
  C583     1.0000 0.91949  0.82848  0.25155  Biso   1.000  C
  H432     1.0000 0.00049  0.89496  0.26606  Biso   1.000  H
  C584     1.0000 0.38729  0.96008  0.13446  Biso   1.000  C
  H433     1.0000 0.31605  0.87887  0.14637  Biso   1.000  H
  C585     1.0000 0.47207  0.02667  0.16047  Biso   1.000  C
  H434     1.0000 0.45378  0.99188  0.19096  Biso   1.000  H
  C586     1.0000 0.12367  0.45377  0.12716  Biso   1.000  C
  H435     1.0000 0.11749  0.40098  0.15307  Biso   1.000  H
  C587     1.0000 0.23317  0.54227  0.11866  Biso   1.000  C
  H436     1.0000 0.29677  0.55108  0.14196  Biso   1.000  H
  C588     1.0000 0.66430  0.48528  0.14342  Biso   1.000  C
  H437     1.0000 0.71420  0.48831  0.11677  Biso   1.000  H
  C589     1.0000 0.63240  0.43200  0.15911  Biso   1.000  C
  H438     1.0000 0.63239  0.34579  0.16186  Biso   1.000  H
  H439     1.0000 0.76218  0.48258  0.09717  Biso   1.000  H
  C590     1.0000 0.81579  0.45558  0.07836  Biso   1.000  C
  C591     1.0000 0.82258  0.39848  0.07907  Biso   1.000  C
  H440     1.0000 0.77430  0.31752  0.09876  Biso   1.000  H
  C592     1.0000 0.88548  0.81698  0.23118  Biso   1.000  C
  H441     1.0000 0.89219  0.84981  0.19977  Biso   1.000  H
  H442     1.0000 0.90251  0.79858  0.26326  Biso   1.000  H
  H443     1.0000 0.90247  0.79858  0.26326  Biso   1.000  H
  C593     1.0000 0.36528  0.95079  0.11136  Biso   1.000  C
  C594     1.0000 0.44840  0.01840  0.13877  Biso   1.000  C
  H444     1.0000 0.51378  0.06307  0.16377  Biso   1.000  H
  C595     1.0000 0.16642  0.50680  0.11317  Biso   1.000  C
  C596     1.0000 0.16637  0.50680  0.11317  Biso   1.000  C
  H445     1.0000 0.07832  0.42950  0.12397  Biso   1.000  H
  H446     1.0000 0.07828  0.42950  0.12397  Biso   1.000  H
  H447     1.0000 0.26395  0.57637  0.10956  Biso   1.000  H
  C597     1.0000 0.66221  0.54261  0.14413  Biso   1.000  C
  H448     1.0000 0.60647  0.43097  0.17106  Biso   1.000  H
  C598     1.0000 0.84729  0.50739  0.06369  Biso   1.000  C
  H449     1.0000 0.85029  0.38968  0.07026  Biso   1.000  H
  C599     1.0000 0.81978  0.75421  0.22922  Biso   1.000  C
  N64      1.0000 0.29980  0.94227  0.10878  Biso   1.000  N
  N65      1.0000 0.29975  0.94227  0.10878  Biso   1.000  N
  H450     1.0000 0.39691  0.98939  0.10287  Biso   1.000  H
  H451     1.0000 0.36540  0.91189  0.10546  Biso   1.000  H
  H452     1.0000 0.39686  0.98939  0.10287  Biso   1.000  H
  H453     1.0000 0.36536  0.91189  0.10546  Biso   1.000  H
  H454     1.0000 0.47178  0.04966  0.12776  Biso   1.000  H
  C600     1.0000 0.14129  0.52011  0.09287  Biso   1.000  C
  C601     1.0000 0.62358  0.55299  0.16128  Biso   1.000  C
  C602     1.0000 0.69778  0.59579  0.12962  Biso   1.000  C
  C603     1.0000 0.84478  0.56507  0.06385  Biso   1.000  C
  C604     1.0000 0.89299  0.50269  0.04777  Biso   1.000  C
  C605     1.0000 0.80460  0.69809  0.24009  Biso   1.000  C
  C606     1.0000 0.77261  0.75690  0.21588  Biso   1.000  C
  C607     1.0000 0.28938  0.99007  0.11877  Biso   1.000  C
  C608     1.0000 0.25390  0.89761  0.09617  Biso   1.000  C
  C609     1.0000 0.08212  0.47040  0.08216  Biso   1.000  C
  C610     1.0000 0.08208  0.47040  0.08216  Biso   1.000  C
  C611     1.0000 0.17297  0.58381  0.08347  Biso   1.000  C
  C612     1.0000 0.56303  0.54721  0.15676  Biso   1.000  C
  C613     1.0000 0.56299  0.54721  0.15676  Biso   1.000  C
  C614     1.0000 0.64501  0.56321  0.18340  Biso   1.000  C
  N66      1.0000 0.73281  0.59501  0.11231  Biso   1.000  N
  C615     1.0000 0.69809  0.65641  0.13106  Biso   1.000  C
  N67      1.0000 0.81038  0.58170  0.07764  Biso   1.000  N
  C616     1.0000 0.88021  0.62001  0.04997  Biso   1.000  C
  C617     1.0000 0.86290  0.45641  0.03067  Biso   1.000  C
  C618     1.0000 0.95706  0.53508  0.04898  Biso   1.000  C
  C619     1.0000 0.74609  0.64369  0.23716  Biso   1.000  C
  H455     1.0000 0.83548  0.69731  0.24977  Biso   1.000  H
  C620     1.0000 0.71057  0.70069  0.21457  Biso   1.000  C
  H456     1.0000 0.78251  0.79550  0.20806  Biso   1.000  H
  C621     1.0000 0.22738  0.98430  0.11745  Biso   1.000  C
  H457     1.0000 0.32397  0.02579  0.12627  Biso   1.000  H
  C622     1.0000 0.19541  0.89350  0.09324  Biso   1.000  C
  C623     1.0000 0.19537  0.89350  0.09324  Biso   1.000  C
  H458     1.0000 0.26259  0.86727  0.08887  Biso   1.000  H
  C624     1.0000 0.06110  0.48802  0.06446  Biso   1.000  C
  H459     1.0000 0.05910  0.42691  0.08747  Biso   1.000  H
  C625     1.0000 0.14900  0.59560  0.06597  Biso   1.000  C
  H460     1.0000 0.21167  0.61791  0.08987  Biso   1.000  H
  C626     1.0000 0.52791  0.55460  0.17287  Biso   1.000  C
  H461     1.0000 0.54619  0.53811  0.14237  Biso   1.000  H
  C627     1.0000 0.61273  0.57280  0.19886  Biso   1.000  C
  C628     1.0000 0.61269  0.57280  0.19886  Biso   1.000  C
  H462     1.0000 0.68389  0.56277  0.18696  Biso   1.000  H
  C629     1.0000 0.75742  0.65719  0.10344  Biso   1.000  C
  H463     1.0000 0.73847  0.56277  0.10776  Biso   1.000  H
  C630     1.0000 0.75737  0.65719  0.10344  Biso   1.000  C
  H464     1.0000 0.67548  0.66737  0.14146  Biso   1.000  H
  C631     1.0000 0.73590  0.69457  0.11526  Biso   1.000  C
  C632     1.0000 0.82310  0.64281  0.07350  Biso   1.000  C
  H465     1.0000 0.78371  0.55607  0.08776  Biso   1.000  H
  C633     1.0000 0.86722  0.66580  0.05497  Biso   1.000  C
  C634     1.0000 0.86718  0.66580  0.05497  Biso   1.000  C
  H466     1.0000 0.90889  0.62270  0.03867  Biso   1.000  H
  H467     1.0000 0.81680  0.43488  0.02856  Biso   1.000  H
  C635     1.0000 0.90252  0.44320  0.01697  Biso   1.000  C
  C636     1.0000 0.90248  0.44320  0.01697  Biso   1.000  C
  H468     1.0000 0.97759  0.56487  0.06056  Biso   1.000  H
  C637     1.0000 0.99552  0.52711  0.03389  Biso   1.000  C
  C638     1.0000 0.99548  0.52711  0.03389  Biso   1.000  C
  N68      1.0000 0.70018  0.64247  0.22454  Biso   1.000  N
  H469     1.0000 0.73740  0.60470  0.24446  Biso   1.000  H
  H470     1.0000 0.67601  0.70181  0.20707  Biso   1.000  H
  C639     1.0000 0.18019  0.93440  0.10410  Biso   1.000  C
  H471     1.0000 0.21748  0.01297  0.12527  Biso   1.000  H
  H472     1.0000 0.16452  0.86179  0.08357  Biso   1.000  H
  H473     1.0000 0.16448  0.86179  0.08357  Biso   1.000  H
  N69      1.0000 0.09590  0.55049  0.05666  Biso   1.000  N
  H474     1.0000 0.02199  0.45700  0.05747  Biso   1.000  H
  H475     1.0000 0.17090  0.63831  0.05986  Biso   1.000  H
  H476     1.0000 0.48618  0.54927  0.16957  Biso   1.000  H
  C640     1.0000 0.55164  0.57001  0.19457  Biso   1.000  C
  C641     1.0000 0.55159  0.57001  0.19457  Biso   1.000  C
  C642     1.0000 0.63470  0.58547  0.22197  Biso   1.000  C
  C643     1.0000 0.79670  0.67779  0.08519  Biso   1.000  C
  H477     1.0000 0.74641  0.73831  0.11236  Biso   1.000  H
  H478     1.0000 0.88339  0.70670  0.04777  Biso   1.000  H
  H479     1.0000 0.88271  0.40680  0.00746  Biso   1.000  H
  C644     1.0000 0.97029  0.48239  0.01716  Biso   1.000  C
  C645     1.0000 0.06859  0.56341  0.03677  Biso   1.000  C
  C646     1.0000 0.11449  0.93146  0.10216  Biso   1.000  C
  H480     1.0000 0.52820  0.57789  0.20557  Biso   1.000  H
  H481     1.0000 0.60311  0.59247  0.23047  Biso   1.000  H
  H482     1.0000 0.60307  0.59247  0.23047  Biso   1.000  H
  H483     1.0000 0.63456  0.54648  0.22786  Biso   1.000  H
  C647     1.0000 0.82070  0.74511  0.07766  Biso   1.000  C
  H484     1.0000 0.99727  0.47857  0.00657  Biso   1.000  H
  H485     1.0000 0.08789  0.55338  0.02406  Biso   1.000  H
  H486     1.0000 0.08379  0.61077  0.03627  Biso   1.000  H
  H487     1.0000 0.08375  0.61077  0.03627  Biso   1.000  H
  C648     1.0000 0.08649  0.94580  0.11986  Biso   1.000  C
  C649     1.0000 0.08051  0.90900  0.08177  Biso   1.000  C
  C650     1.0000 0.79871  0.75529  0.05757  Biso   1.000  C
  C651     1.0000 0.86147  0.79878  0.08900  Biso   1.000  C
  C652     1.0000 0.79867  0.75529  0.05757  Biso   1.000  C
  C653     1.0000 0.02829  0.94227  0.11677  Biso   1.000  C
  H488     1.0000 0.10777  0.95759  0.13357  Biso   1.000  H
  C654     1.0000 0.02247  0.90749  0.08058  Biso   1.000  C
  H489     1.0000 0.09748  0.89609  0.07007  Biso   1.000  H
  H490     1.0000 0.87610  0.79330  0.10276  Biso   1.000  H
  C655     1.0000 0.88398  0.86380  0.08137  Biso   1.000  C
  H491     1.0000 0.76969  0.71869  0.04897  Biso   1.000  H
  C656     1.0000 0.81972  0.82011  0.04987  Biso   1.000  C
  C657     1.0000 0.81968  0.82011  0.04987  Biso   1.000  C
  N70      1.0000 0.99417  0.92368  0.09743  Biso   1.000  N
  H492     1.0000 0.00960  0.95318  0.12847  Biso   1.000  H
  H493     1.0000 0.99948  0.89447  0.06726  Biso   1.000  H
  C658     1.0000 0.86078  0.87197  0.06166  Biso   1.000  C
  C659     1.0000 0.93401  0.92310  0.09466  Biso   1.000  C
  H494     1.0000 0.80428  0.82618  0.03637  Biso   1.000  H
  H495     1.0000 0.87418  0.91478  0.05656  Biso   1.000  H
  H496     1.0000 0.94259  0.96390  0.08736  Biso   1.000  H
  H497     1.0000 0.91511  0.92207  0.10907  Biso   1.000  H
  H498     1.0000 0.91506  0.92207  0.10907  Biso   1.000  H
  C660     1.0000 0.17678  0.22348  0.14923  Biso   1.000  C
  C661     1.0000 0.14388  0.25548  0.14983  Biso   1.000  C
  H499     1.0000 0.16772  0.19002  0.15953  Biso   1.000  H
  C662     1.0000 0.22391  0.23860  0.13374  Biso   1.000  C
  C663     1.0000 0.14498  0.29658  0.13443  Biso   1.000  C
  H500     1.0000 0.11737  0.24897  0.16224  Biso   1.000  H
  C664     1.0000 0.22781  0.28351  0.11764  Biso   1.000  C
  C665     1.0000 0.26148  0.20240  0.13173  Biso   1.000  C
  C666     1.0000 0.19181  0.31150  0.11748  Biso   1.000  C
  H501     1.0000 0.11669  0.31438  0.13484  Biso   1.000  H
  H502     1.0000 0.25841  0.29379  0.10624  Biso   1.000  H
  H503     1.0000 0.30900  0.23430  0.13223  Biso   1.000  H
  H504     1.0000 0.25081  0.17241  0.14423  Biso   1.000  H
  N71      1.0000 0.24561  0.16380  0.11111  Biso   1.000  N
  C667     1.0000 0.19637  0.36037  0.10048  Biso   1.000  C
  C668     1.0000 0.29709  0.16541  0.09976  Biso   1.000  C
  C669     1.0000 0.18269  0.12701  0.10446  Biso   1.000  C
  C670     1.0000 0.25989  0.42251  0.10012  Biso   1.000  C
  C671     1.0000 0.14591  0.34071  0.08636  Biso   1.000  C
  C672     1.0000 0.28077  0.12598  0.08187  Biso   1.000  C
  H505     1.0000 0.34132  0.19252  0.10407  Biso   1.000  H
  H506     1.0000 0.14838  0.12847  0.11197  Biso   1.000  H
  C673     1.0000 0.17001  0.08860  0.08717  Biso   1.000  C
  N72      1.0000 0.27169  0.46957  0.08527  Biso   1.000  N
  C674     1.0000 0.31218  0.43870  0.11513  Biso   1.000  C
  N73      1.0000 0.14370  0.37578  0.06939  Biso   1.000  N
  C675     1.0000 0.09032  0.27911  0.08673  Biso   1.000  C
  C676     1.0000 0.21840  0.08640  0.07547  Biso   1.000  C
  H507     1.0000 0.31502  0.12652  0.07366  Biso   1.000  H
  H508     1.0000 0.12568  0.06179  0.08276  Biso   1.000  H
  H509     1.0000 0.24519  0.46869  0.07504  Biso   1.000  H
  C677     1.0000 0.33338  0.51830  0.08961  Biso   1.000  C
  C678     1.0000 0.35978  0.50059  0.10703  Biso   1.000  C
  H510     1.0000 0.31428  0.41468  0.12713  Biso   1.000  H
  C679     1.0000 0.08287  0.33767  0.05813  Biso   1.000  C
  H511     1.0000 0.17450  0.41551  0.06584  Biso   1.000  H
  H512     1.0000 0.08149  0.24501  0.09674  Biso   1.000  H
  C680     1.0000 0.05008  0.27608  0.07003  Biso   1.000  C
  C681     1.0000 0.20191  0.04452  0.05606  Biso   1.000  C
  C682     1.0000 0.36739  0.57911  0.07815  Biso   1.000  C
  H513     1.0000 0.40299  0.52618  0.11243  Biso   1.000  H
  C683     1.0000 0.06570  0.35401  0.04003  Biso   1.000  C
  H514     1.0000 0.00811  0.24002  0.06683  Biso   1.000  H
  C684     1.0000 0.23958  0.01429  0.05107  Biso   1.000  C
  C685     1.0000 0.14941  0.03190  0.04257  Biso   1.000  C
  C686     1.0000 0.34590  0.59868  0.06153  Biso   1.000  C
  C687     1.0000 0.43569  0.62691  0.08623  Biso   1.000  C
  C688     1.0000 0.10009  0.41160  0.02733  Biso   1.000  C
  C689     1.0000 0.99822  0.30259  0.03284  Biso   1.000  C
  C690     1.0000 0.00612  0.31551  0.02554  Biso   1.000  C
  H515     1.0000 0.27670  0.02250  0.05946  Biso   1.000  H
  C691     1.0000 0.21951  0.97211  0.03337  Biso   1.000  C
  H516     1.0000 0.12391  0.05191  0.04547  Biso   1.000  H
  C692     1.0000 0.13607  0.99428  0.02667  Biso   1.000  C
  N74      1.0000 0.28733  0.56321  0.05091  Biso   1.000  N
  C693     1.0000 0.38019  0.65920  0.04874  Biso   1.000  C
  C694     1.0000 0.44252  0.66370  0.10433  Biso   1.000  C
  C695     1.0000 0.49138  0.63669  0.07583  Biso   1.000  C
  N75      1.0000 0.16060  0.46458  0.03438  Biso   1.000  N
  C696     1.0000 0.08180  0.42358  0.00703  Biso   1.000  C
  C697     1.0000 0.94408  0.30788  0.03873  Biso   1.000  C
  C698     1.0000 0.98760  0.25127  0.01932  Biso   1.000  C
  C699     1.0000 0.95441  0.32828  0.02443  Biso   1.000  C
  N76      1.0000 0.16808  0.96399  0.02047  Biso   1.000  N
  H517     1.0000 0.24139  0.94858  0.03007  Biso   1.000  H
  H518     1.0000 0.09931  0.98659  0.01827  Biso   1.000  H
  C700     1.0000 0.28241  0.59330  0.03289  Biso   1.000  C
  H519     1.0000 0.25601  0.52481  0.05533  Biso   1.000  H
  C701     1.0000 0.34202  0.65641  0.03143  Biso   1.000  C
  H520     1.0000 0.42241  0.69501  0.05193  Biso   1.000  H
  H521     1.0000 0.40569  0.65411  0.11314  Biso   1.000  H
  C702     1.0000 0.50309  0.71409  0.10953  Biso   1.000  C
  C703     1.0000 0.55367  0.67627  0.08474  Biso   1.000  C
  H522     1.0000 0.48748  0.61600  0.06223  Biso   1.000  H
  H523     1.0000 0.18150  0.46849  0.04654  Biso   1.000  H
  C704     1.0000 0.17969  0.51047  0.01678  Biso   1.000  C
  C705     1.0000 0.13072  0.48430  0.00034  Biso   1.000  C
  H524     1.0000 0.04300  0.39530  0.99924  Biso   1.000  H
  H525     1.0000 0.94771  0.33709  0.04994  Biso   1.000  H
  C706     1.0000 0.88540  0.27050  0.02824  Biso   1.000  C
  H526     1.0000 0.95621  0.36169  0.03354  Biso   1.000  H
  H527     1.0000 0.02351  0.24530  0.01603  Biso   1.000  H
  C707     1.0000 0.92693  0.20832  0.01043  Biso   1.000  C
  H528     1.0000 0.01809  0.23660  0.02123  Biso   1.000  H
  C708     1.0000 0.90003  0.29501  0.01074  Biso   1.000  C
  C709     1.0000 0.15070  0.91482  0.00296  Biso   1.000  C
  C710     1.0000 0.23569  0.57221  0.01763  Biso   1.000  C
  H529     1.0000 0.35260  0.68909  0.02063  Biso   1.000  H
  H530     1.0000 0.50719  0.74907  0.11843  Biso   1.000  H
  C711     1.0000 0.55686  0.71536  0.10193  Biso   1.000  C
  C712     1.0000 0.61561  0.68219  0.07303  Biso   1.000  C
  H531     1.0000 0.13158  0.50509  0.98703  Biso   1.000  H
  H532     1.0000 0.85322  0.28342  0.02834  Biso   1.000  H
  C713     1.0000 0.87319  0.21380  0.01733  Biso   1.000  C
  C714     1.0000 0.87950  0.22769  0.00913  Biso   1.000  C
  C715     1.0000 0.91481  0.15069  0.99704  Biso   1.000  C
  H533     1.0000 0.87888  0.31458  0.00343  Biso   1.000  H
  C716     1.0000 0.20831  0.92691  0.98957  Biso   1.000  C
  H534     1.0000 0.11719  0.91551  0.99357  Biso   1.000  H
  H535     1.0000 0.13118  0.87069  0.00957  Biso   1.000  H
  C717     1.0000 0.24510  0.61918  0.99974  Biso   1.000  C
  H536     1.0000 0.59801  0.74359  0.10854  Biso   1.000  H
  H537     1.0000 0.61899  0.70108  0.05844  Biso   1.000  H
  H538     1.0000 0.65519  0.71297  0.08124  Biso   1.000  H
  N77      1.0000 0.61477  0.62358  0.07086  Biso   1.000  N
  H539     1.0000 0.82971  0.17980  0.01464  Biso   1.000  H
  H540     1.0000 0.83459  0.19609  0.00714  Biso   1.000  H
  N78      1.0000 0.96402  0.16810  0.97953  Biso   1.000  N
  H541     1.0000 0.87071  0.13121  0.99043  Biso   1.000  H
  H542     1.0000 0.91553  0.11722  0.00643  Biso   1.000  H
  C718     1.0000 0.21377  0.87319  0.98267  Biso   1.000  C
  C719     1.0000 0.25129  0.98762  0.98068  Biso   1.000  C
  C720     1.0000 0.22769  0.87950  0.99087  Biso   1.000  C
  C721     1.0000 0.24029  0.67539  0.00384  Biso   1.000  C
  C722     1.0000 0.25679  0.60900  0.97893  Biso   1.000  C
  C723     1.0000 0.63708  0.61439  0.05227  Biso   1.000  C
  C724     1.0000 0.59816  0.58307  0.08827  Biso   1.000  C
  C725     1.0000 0.97208  0.21947  0.96663  Biso   1.000  C
  C726     1.0000 0.99429  0.13611  0.97333  Biso   1.000  C
  C727     1.0000 0.27052  0.88542  0.97176  Biso   1.000  C
  H543     1.0000 0.17978  0.82970  0.98536  Biso   1.000  H
  C728     1.0000 0.29501  0.90000  0.98926  Biso   1.000  C
  H544     1.0000 0.19608  0.83459  0.99286  Biso   1.000  H
  C729     1.0000 0.30259  0.99819  0.96716  Biso   1.000  C
  H545     1.0000 0.24528  0.02348  0.98397  Biso   1.000  H
  C730     1.0000 0.31549  0.00612  0.97446  Biso   1.000  C
  H546     1.0000 0.23662  0.01810  0.97877  Biso   1.000  H
  H547     1.0000 0.23361  0.68440  0.01833  Biso   1.000  H
  C731     1.0000 0.24478  0.71717  0.98784  Biso   1.000  C
  C732     1.0000 0.26611  0.65441  0.96274  Biso   1.000  C
  H548     1.0000 0.25849  0.57070  0.97534  Biso   1.000  H
  C733     1.0000 0.64831  0.56091  0.05107  Biso   1.000  C
  H549     1.0000 0.64528  0.64257  0.04027  Biso   1.000  H
  H550     1.0000 0.58530  0.59438  0.10137  Biso   1.000  H
  C734     1.0000 0.60001  0.52999  0.08707  Biso   1.000  C
  H551     1.0000 0.94859  0.24139  0.96993  Biso   1.000  H
  C735     1.0000 0.01429  0.23958  0.94893  Biso   1.000  C
  H552     1.0000 0.98661  0.09932  0.98173  Biso   1.000  H
  C736     1.0000 0.03191  0.14941  0.95743  Biso   1.000  C
  C737     1.0000 0.30790  0.94408  0.96127  Biso   1.000  C
  H553     1.0000 0.28338  0.85318  0.97166  Biso   1.000  H
  C738     1.0000 0.32832  0.95440  0.97557  Biso   1.000  C
  H554     1.0000 0.31459  0.87891  0.99657  Biso   1.000  H
  C739     1.0000 0.35401  0.06570  0.95997  Biso   1.000  C
  H555     1.0000 0.23429  0.75059  0.99024  Biso   1.000  H
  C740     1.0000 0.26657  0.70788  0.96693  Biso   1.000  C
  C741     1.0000 0.27920  0.64247  0.93884  Biso   1.000  C
  C742     1.0000 0.62879  0.52011  0.06817  Biso   1.000  C
  H556     1.0000 0.66860  0.55421  0.03886  Biso   1.000  H
  H557     1.0000 0.58280  0.49829  0.09837  Biso   1.000  H
  H558     1.0000 0.02252  0.27671  0.94054  Biso   1.000  H
  C743     1.0000 0.04452  0.20191  0.94394  Biso   1.000  C
  H559     1.0000 0.05190  0.12388  0.95453  Biso   1.000  H
  H560     1.0000 0.33708  0.94770  0.95006  Biso   1.000  H
  H561     1.0000 0.36172  0.95621  0.96646  Biso   1.000  H
  C744     1.0000 0.33768  0.08288  0.94187  Biso   1.000  C
  C745     1.0000 0.41159  0.10010  0.97267  Biso   1.000  C
  H562     1.0000 0.28121  0.74139  0.95623  Biso   1.000  H
  N79      1.0000 0.34148  0.63728  0.93693  Biso   1.000  N
  H563     1.0000 0.24130  0.60167  0.93343  Biso   1.000  H
  H564     1.0000 0.28401  0.67911  0.92974  Biso   1.000  H
  C746     1.0000 0.63440  0.45768  0.06697  Biso   1.000  C
  C747     1.0000 0.08640  0.21840  0.92453  Biso   1.000  C
  N80      1.0000 0.37580  0.14369  0.93061  Biso   1.000  N
  C748     1.0000 0.27609  0.05010  0.92997  Biso   1.000  C
  N81      1.0000 0.46460  0.16062  0.96562  Biso   1.000  N
  C749     1.0000 0.42358  0.08180  0.99297  Biso   1.000  C
  C750     1.0000 0.39500  0.67848  0.94883  Biso   1.000  C
  C751     1.0000 0.34778  0.59829  0.92404  Biso   1.000  C
  C752     1.0000 0.67788  0.45338  0.05227  Biso   1.000  C
  C753     1.0000 0.59161  0.40201  0.07917  Biso   1.000  C
  C754     1.0000 0.12598  0.28077  0.91813  Biso   1.000  C
  C755     1.0000 0.08861  0.17001  0.91283  Biso   1.000  C
  C756     1.0000 0.34068  0.14589  0.91364  Biso   1.000  C
  H565     1.0000 0.41549  0.17451  0.93416  Biso   1.000  H
  C757     1.0000 0.27912  0.09031  0.91327  Biso   1.000  C
  H566     1.0000 0.24002  0.00812  0.93317  Biso   1.000  H
  H567     1.0000 0.46852  0.18151  0.95346  Biso   1.000  H
  C758     1.0000 0.51049  0.17970  0.98322  Biso   1.000  C
  H568     1.0000 0.39528  0.04300  0.00076  Biso   1.000  H
  C759     1.0000 0.48429  0.13068  0.99966  Biso   1.000  C
  H569     1.0000 0.39229  0.70891  0.95834  Biso   1.000  H
  C760     1.0000 0.45338  0.67789  0.94773  Biso   1.000  C
  C761     1.0000 0.40197  0.59159  0.92083  Biso   1.000  C
  H570     1.0000 0.31052  0.57070  0.91554  Biso   1.000  H
  C762     1.0000 0.67848  0.39501  0.05117  Biso   1.000  C
  H571     1.0000 0.70597  0.48948  0.04336  Biso   1.000  H
  H572     1.0000 0.56019  0.40171  0.08887  Biso   1.000  H
  C763     1.0000 0.59831  0.34780  0.07596  Biso   1.000  C
  H573     1.0000 0.12647  0.31497  0.92634  Biso   1.000  H
  C764     1.0000 0.16542  0.29711  0.90024  Biso   1.000  C
  C765     1.0000 0.12697  0.18268  0.89554  Biso   1.000  C
  H574     1.0000 0.06178  0.12569  0.91724  Biso   1.000  H
  C766     1.0000 0.36037  0.19638  0.89952  Biso   1.000  C
  H575     1.0000 0.24502  0.08151  0.90326  Biso   1.000  H
  C767     1.0000 0.57218  0.23572  0.98237  Biso   1.000  C
  H576     1.0000 0.50509  0.13161  0.01297  Biso   1.000  H
  H577     1.0000 0.48950  0.70597  0.95664  Biso   1.000  H
  C768     1.0000 0.45769  0.63440  0.93303  Biso   1.000  C
  H578     1.0000 0.40169  0.56018  0.91113  Biso   1.000  H
  N82      1.0000 0.63727  0.34149  0.06307  Biso   1.000  N
  H579     1.0000 0.70889  0.39227  0.04166  Biso   1.000  H
  H580     1.0000 0.57067  0.31047  0.08446  Biso   1.000  H
  N83      1.0000 0.16381  0.24560  0.88889  Biso   1.000  N
  H581     1.0000 0.19251  0.34129  0.89593  Biso   1.000  H
  H582     1.0000 0.12851  0.14839  0.88803  Biso   1.000  H
  C769     1.0000 0.42250  0.25988  0.89988  Biso   1.000  C
  C770     1.0000 0.31151  0.19178  0.88252  Biso   1.000  C
  C771     1.0000 0.61921  0.24511  0.00026  Biso   1.000  C
  C772     1.0000 0.59327  0.28239  0.96711  Biso   1.000  C
  C773     1.0000 0.52009  0.62877  0.93183  Biso   1.000  C
  C774     1.0000 0.64249  0.27921  0.06116  Biso   1.000  C
  C775     1.0000 0.20240  0.26150  0.86827  Biso   1.000  C
  N84      1.0000 0.46958  0.27167  0.91473  Biso   1.000  N
  C776     1.0000 0.43869  0.31218  0.88487  Biso   1.000  C
  C777     1.0000 0.29660  0.14501  0.86557  Biso   1.000  C
  C778     1.0000 0.28350  0.22779  0.88236  Biso   1.000  C
  C779     1.0000 0.60900  0.25680  0.02107  Biso   1.000  C
  C780     1.0000 0.67541  0.24031  0.99616  Biso   1.000  C
  N85      1.0000 0.56318  0.28728  0.94909  Biso   1.000  N
  C781     1.0000 0.65637  0.34198  0.96857  Biso   1.000  C
  C782     1.0000 0.56090  0.64829  0.94893  Biso   1.000  C
  C783     1.0000 0.52998  0.60000  0.91293  Biso   1.000  C
  C784     1.0000 0.65440  0.26610  0.03726  Biso   1.000  C
  H583     1.0000 0.60171  0.24129  0.06657  Biso   1.000  H
  H584     1.0000 0.67907  0.28400  0.07026  Biso   1.000  H
  C785     1.0000 0.23858  0.22388  0.86626  Biso   1.000  C
  H585     1.0000 0.23428  0.30900  0.86777  Biso   1.000  H
  H586     1.0000 0.17238  0.25078  0.85577  Biso   1.000  H
  H587     1.0000 0.46872  0.24521  0.92496  Biso   1.000  H
  C786     1.0000 0.51829  0.33342  0.91039  Biso   1.000  C
  C787     1.0000 0.50059  0.35979  0.89297  Biso   1.000  C
  H588     1.0000 0.41471  0.31429  0.87287  Biso   1.000  H
  H589     1.0000 0.31438  0.11668  0.86516  Biso   1.000  H
  C788     1.0000 0.25549  0.14389  0.85017  Biso   1.000  C
  H590     1.0000 0.29381  0.25842  0.89376  Biso   1.000  H
  H591     1.0000 0.57070  0.25851  0.02466  Biso   1.000  H
  C789     1.0000 0.71719  0.24481  0.01216  Biso   1.000  C
  H592     1.0000 0.68438  0.23361  0.98167  Biso   1.000  H
  C790     1.0000 0.59867  0.34589  0.93847  Biso   1.000  C
  H593     1.0000 0.52480  0.25602  0.94467  Biso   1.000  H
  H594     1.0000 0.68909  0.35259  0.97937  Biso   1.000  H
  C791     1.0000 0.65921  0.38019  0.95126  Biso   1.000  C
  H595     1.0000 0.55419  0.66859  0.96114  Biso   1.000  H
  C792     1.0000 0.61441  0.63709  0.94773  Biso   1.000  C
  C793     1.0000 0.58310  0.59819  0.91173  Biso   1.000  C
  H596     1.0000 0.49828  0.58278  0.90163  Biso   1.000  H
  C794     1.0000 0.70786  0.26659  0.03307  Biso   1.000  C
  C795     1.0000 0.22352  0.17681  0.85077  Biso   1.000  C
  C796     1.0000 0.57910  0.36742  0.92185  Biso   1.000  C
  H597     1.0000 0.52617  0.40299  0.88757  Biso   1.000  H
  H598     1.0000 0.24899  0.11742  0.83776  Biso   1.000  H
  H599     1.0000 0.75057  0.23430  0.00976  Biso   1.000  H
  H600     1.0000 0.69498  0.42241  0.94807  Biso   1.000  H
  N86      1.0000 0.62359  0.61478  0.92914  Biso   1.000  N
  H601     1.0000 0.64258  0.64531  0.95973  Biso   1.000  H
  H602     1.0000 0.59439  0.58528  0.89863  Biso   1.000  H
  H603     1.0000 0.74140  0.28121  0.04377  Biso   1.000  H
  H604     1.0000 0.18999  0.16771  0.84047  Biso   1.000  H
  C797     1.0000 0.62689  0.43572  0.91377  Biso   1.000  C
  C798     1.0000 0.68218  0.61561  0.92697  Biso   1.000  C
  C799     1.0000 0.66372  0.44252  0.89567  Biso   1.000  C
  C800     1.0000 0.63668  0.49139  0.92417  Biso   1.000  C
  C801     1.0000 0.67629  0.55367  0.91526  Biso   1.000  C
  H605     1.0000 0.70107  0.61898  0.94156  Biso   1.000  H
  H606     1.0000 0.71299  0.65519  0.91876  Biso   1.000  H
  H607     1.0000 0.65407  0.40568  0.88686  Biso   1.000  H
  C802     1.0000 0.71409  0.50308  0.89047  Biso   1.000  C
  H608     1.0000 0.61600  0.48748  0.93777  Biso   1.000  H
  C803     1.0000 0.71540  0.55690  0.89807  Biso   1.000  C
  H609     1.0000 0.74911  0.50719  0.88157  Biso   1.000  H
  H610     1.0000 0.74358  0.59800  0.89146  Biso   1.000  H
  C804     1.0000 0.49479  0.93136  0.70343  Biso   1.000  C
  N87      1.0000 0.45460  0.90411  0.72333  Biso   1.000  N
  N88      1.0000 0.45457  0.90406  0.72333  Biso   1.000  N
  H611     1.0000 0.46549  0.91209  0.69073  Biso   1.000  H
  H612     1.0000 0.52699  0.91620  0.70293  Biso   1.000  H
  C805     1.0000 0.53161  0.00450  0.70055  Biso   1.000  C
  C806     1.0000 0.42691  0.93890  0.73114  Biso   1.000  C
  C807     1.0000 0.49481  0.93141  0.70343  Biso   1.000  C
  C808     1.0000 0.44662  0.85103  0.73264  Biso   1.000  C
  C809     1.0000 0.44659  0.85098  0.73264  Biso   1.000  C
  C810     1.0000 0.51210  0.02970  0.68384  Biso   1.000  C
  C811     1.0000 0.57798  0.04291  0.71564  Biso   1.000  C
  C812     1.0000 0.57799  0.04286  0.71564  Biso   1.000  C
  C813     1.0000 0.38828  0.91791  0.74883  Biso   1.000  C
  H613     1.0000 0.43502  0.97799  0.72414  Biso   1.000  H
  C814     1.0000 0.38830  0.91786  0.74883  Biso   1.000  C
  C815     1.0000 0.41079  0.82701  0.75013  Biso   1.000  C
  H614     1.0000 0.46737  0.82906  0.72654  Biso   1.000  H
  C816     1.0000 0.54070  0.09751  0.68363  Biso   1.000  C
  H615     1.0000 0.48131  0.00269  0.67323  Biso   1.000  H
  C817     1.0000 0.54068  0.09746  0.68363  Biso   1.000  C
  C818     1.0000 0.60968  0.10700  0.71444  Biso   1.000  C
  H616     1.0000 0.58730  0.02241  0.72723  Biso   1.000  H
  H617     1.0000 0.58728  0.02236  0.72723  Biso   1.000  H
  H618     1.0000 0.36779  0.94090  0.75413  Biso   1.000  H
  C819     1.0000 0.37881  0.85871  0.75954  Biso   1.000  C
  C820     1.0000 0.37878  0.85866  0.75954  Biso   1.000  C
  H619     1.0000 0.40619  0.78831  0.75653  Biso   1.000  H
  C821     1.0000 0.59350  0.13709  0.69734  Biso   1.000  C
  H620     1.0000 0.52409  0.11732  0.67414  Biso   1.000  H
  H621     1.0000 0.52411  0.11727  0.67414  Biso   1.000  H
  C822     1.0000 0.66007  0.15269  0.73036  Biso   1.000  C
  C823     1.0000 0.66011  0.15269  0.73036  Biso   1.000  C
  C824     1.0000 0.34041  0.83361  0.77983  Biso   1.000  C
  C825     1.0000 0.34039  0.83356  0.77983  Biso   1.000  C
  H622     1.0000 0.61807  0.18317  0.69524  Biso   1.000  H
  C826     1.0000 0.72029  0.15519  0.73052  Biso   1.000  C
  C827     1.0000 0.63981  0.18420  0.74503  Biso   1.000  C
  C828     1.0000 0.30908  0.76678  0.78533  Biso   1.000  C
  C829     1.0000 0.33010  0.87627  0.79383  Biso   1.000  C
  N89      1.0000 0.77126  0.18958  0.74432  Biso   1.000  N
  N90      1.0000 0.77130  0.18958  0.74432  Biso   1.000  N
  C830     1.0000 0.73978  0.11977  0.71663  Biso   1.000  C
  N91      1.0000 0.67968  0.22691  0.76098  Biso   1.000  N
  C831     1.0000 0.57591  0.17740  0.74574  Biso   1.000  C
  N92      1.0000 0.67970  0.22686  0.76098  Biso   1.000  N
  C832     1.0000 0.27331  0.74770  0.80433  Biso   1.000  C
  H623     1.0000 0.31242  0.73601  0.77623  Biso   1.000  H
  H624     1.0000 0.35121  0.92173  0.79063  Biso   1.000  H
  C833     1.0000 0.29198  0.85411  0.81113  Biso   1.000  C
  H625     1.0000 0.35119  0.92168  0.79063  Biso   1.000  H
  C834     1.0000 0.29200  0.85406  0.81113  Biso   1.000  C
  C835     1.0000 0.81971  0.17691  0.74017  Biso   1.000  C
  C836     1.0000 0.81968  0.17686  0.74017  Biso   1.000  C
  H626     1.0000 0.77241  0.21630  0.75444  Biso   1.000  H
  C837     1.0000 0.79858  0.13278  0.72163  Biso   1.000  C
  H627     1.0000 0.71380  0.09110  0.70534  Biso   1.000  H
  H628     1.0000 0.72039  0.23782  0.76383  Biso   1.000  H
  C838     1.0000 0.64250  0.24849  0.77139  Biso   1.000  C
  H629     1.0000 0.72040  0.23777  0.76383  Biso   1.000  H
  H630     1.0000 0.53939  0.14971  0.73693  Biso   1.000  H
  C839     1.0000 0.57779  0.21820  0.76153  Biso   1.000  C
  H631     1.0000 0.53937  0.14966  0.73693  Biso   1.000  H
  H632     1.0000 0.25429  0.70323  0.80863  Biso   1.000  H
  N93      1.0000 0.26401  0.78699  0.81673  Biso   1.000  N
  H633     1.0000 0.25431  0.70318  0.80863  Biso   1.000  H
  H634     1.0000 0.28350  0.88249  0.81973  Biso   1.000  H
  C840     1.0000 0.88107  0.20328  0.75186  Biso   1.000  C
  H635     1.0000 0.82327  0.11659  0.71444  Biso   1.000  H
  C841     1.0000 0.65998  0.29081  0.78891  Biso   1.000  C
  C842     1.0000 0.66000  0.29076  0.78891  Biso   1.000  C
  H636     1.0000 0.54319  0.22569  0.76543  Biso   1.000  H
  C843     1.0000 0.22140  0.76439  0.83663  Biso   1.000  C
  C844     1.0000 0.89980  0.24262  0.77011  Biso   1.000  C
  C845     1.0000 0.92437  0.17931  0.74433  Biso   1.000  C
  C846     1.0000 0.89978  0.24257  0.77011  Biso   1.000  C
  C847     1.0000 0.92439  0.17926  0.74433  Biso   1.000  C
  C848     1.0000 0.71819  0.31419  0.79994  Biso   1.000  C
  C849     1.0000 0.61208  0.30788  0.79800  Biso   1.000  C
  H637     1.0000 0.23120  0.80289  0.84573  Biso   1.000  H
  H638     1.0000 0.17499  0.74359  0.83223  Biso   1.000  H
  C850     1.0000 0.23117  0.71766  0.84973  Biso   1.000  C
  N94      1.0000 0.86217  0.26718  0.77899  Biso   1.000  N
  C851     1.0000 0.95867  0.26409  0.78193  Biso   1.000  C
  C852     1.0000 0.93727  0.13851  0.75567  Biso   1.000  C
  C853     1.0000 0.95658  0.20128  0.72424  Biso   1.000  C
  C854     1.0000 0.93729  0.13846  0.75567  Biso   1.000  C
  N95      1.0000 0.77199  0.30671  0.79495  Biso   1.000  N
  C855     1.0000 0.73909  0.35421  0.82054  Biso   1.000  C
  N96      1.0000 0.77196  0.30666  0.79495  Biso   1.000  N
  C856     1.0000 0.73907  0.35416  0.82054  Biso   1.000  C
  C857     1.0000 0.62441  0.37050  0.79413  Biso   1.000  C
  C858     1.0000 0.55849  0.26561  0.80923  Biso   1.000  C
  C859     1.0000 0.62439  0.37045  0.79413  Biso   1.000  C
  C860     1.0000 0.55847  0.26556  0.80923  Biso   1.000  C
  C861     1.0000 0.29288  0.73440  0.85744  Biso   1.000  C
  C862     1.0000 0.18149  0.65313  0.85313  Biso   1.000  C
  C863     1.0000 0.18151  0.65308  0.85313  Biso   1.000  C
  H639     1.0000 0.82429  0.26150  0.77443  Biso   1.000  H
  C864     1.0000 0.89799  0.30221  0.79630  Biso   1.000  C
  C865     1.0000 0.89796  0.30216  0.79630  Biso   1.000  C
  C866     1.0000 0.95830  0.30191  0.79774  Biso   1.000  C
  H640     1.0000 0.99188  0.25358  0.77903  Biso   1.000  H
  C867     1.0000 0.95828  0.30186  0.79774  Biso   1.000  C
  H641     1.0000 0.91716  0.12388  0.76943  Biso   1.000  H
  C868     1.0000 0.97979  0.11600  0.74804  Biso   1.000  C
  H642     1.0000 0.94897  0.23029  0.71564  Biso   1.000  H
  C869     1.0000 0.00041  0.18029  0.71653  Biso   1.000  C
  C870     1.0000 0.82098  0.33572  0.81009  Biso   1.000  C
  C871     1.0000 0.82100  0.33567  0.81009  Biso   1.000  C
  H643     1.0000 0.77410  0.28577  0.78344  Biso   1.000  H
  H644     1.0000 0.71338  0.36762  0.82853  Biso   1.000  H
  C872     1.0000 0.79960  0.36762  0.82577  Biso   1.000  C
  H645     1.0000 0.71340  0.36757  0.82853  Biso   1.000  H
  C873     1.0000 0.79958  0.36757  0.82577  Biso   1.000  C
  H646     1.0000 0.66328  0.40137  0.78694  Biso   1.000  H
  C874     1.0000 0.57941  0.38777  0.80093  Biso   1.000  C
  C875     1.0000 0.51349  0.28229  0.81694  Biso   1.000  C
  H647     1.0000 0.55129  0.22290  0.81203  Biso   1.000  H
  H648     1.0000 0.32839  0.77711  0.85464  Biso   1.000  H
  C876     1.0000 0.30418  0.69208  0.86866  Biso   1.000  C
  C877     1.0000 0.19159  0.61223  0.86573  Biso   1.000  C
  C878     1.0000 0.19161  0.61218  0.86573  Biso   1.000  C
  H649     1.0000 0.14008  0.63767  0.84643  Biso   1.000  H
  C879     1.0000 0.88039  0.33777  0.81079  Biso   1.000  C
  H650     1.0000 0.99189  0.32452  0.80813  Biso   1.000  H
  H651     1.0000 0.99187  0.32447  0.80813  Biso   1.000  H
  C880     1.0000 0.98906  0.06600  0.76133  Biso   1.000  C
  C881     1.0000 0.98911  0.06600  0.76133  Biso   1.000  C
  C882     1.0000 0.01117  0.13919  0.72833  Biso   1.000  C
  H652     1.0000 0.02188  0.19570  0.70304  Biso   1.000  H
  H653     1.0000 0.82449  0.39350  0.83773  Biso   1.000  H
  H654     1.0000 0.58418  0.42867  0.79673  Biso   1.000  H
  C883     1.0000 0.52841  0.34687  0.81354  Biso   1.000  C
  C884     1.0000 0.45702  0.23562  0.83004  Biso   1.000  C
  C885     1.0000 0.45699  0.23557  0.83004  Biso   1.000  C
  C886     1.0000 0.25391  0.62950  0.87253  Biso   1.000  C
  C887     1.0000 0.36918  0.70920  0.87776  Biso   1.000  C
  C888     1.0000 0.36922  0.70920  0.87776  Biso   1.000  C
  H655     1.0000 0.15551  0.57133  0.86994  Biso   1.000  H
  H656     1.0000 0.15548  0.57128  0.86994  Biso   1.000  H
  C889     1.0000 0.92940  0.37637  0.82794  Biso   1.000  C
  N97      1.0000 0.92949  0.00583  0.76410  Biso   1.000  N
  N98      1.0000 0.92946  0.00578  0.76410  Biso   1.000  N
  H657     1.0000 0.02128  0.05739  0.75403  Biso   1.000  H
  H658     1.0000 0.00698  0.08489  0.77573  Biso   1.000  H
  H659     1.0000 0.04056  0.12579  0.72323  Biso   1.000  H
  H660     1.0000 0.50239  0.36228  0.82023  Biso   1.000  H
  H661     1.0000 0.42832  0.19712  0.82094  Biso   1.000  H
  H662     1.0000 0.43140  0.25641  0.83443  Biso   1.000  H
  N99      1.0000 0.47699  0.21302  0.84993  Biso   1.000  N
  H663     1.0000 0.42829  0.19707  0.82094  Biso   1.000  H
  H664     1.0000 0.43138  0.25636  0.83443  Biso   1.000  H
  N100     1.0000 0.47700  0.21297  0.84993  Biso   1.000  N
  H665     1.0000 0.26190  0.59863  0.87974  Biso   1.000  H
  H666     1.0000 0.26188  0.59858  0.87974  Biso   1.000  H
  C890     1.0000 0.39402  0.75152  0.89527  Biso   1.000  C
  C891     1.0000 0.40400  0.68581  0.86673  Biso   1.000  C
  C892     1.0000 0.39400  0.75147  0.89527  Biso   1.000  C
  C893     1.0000 0.40398  0.68577  0.86673  Biso   1.000  C
  C894     1.0000 0.98419  0.43699  0.82343  Biso   1.000  C
  C895     1.0000 0.91820  0.35499  0.85007  Biso   1.000  C
  C896     1.0000 0.88499  0.97750  0.74725  Biso   1.000  C
  C897     1.0000 0.91398  0.97168  0.78344  Biso   1.000  C
  C898     1.0000 0.43787  0.14589  0.85553  Biso   1.000  C
  C899     1.0000 0.52561  0.25230  0.86233  Biso   1.000  C
  C900     1.0000 0.43792  0.14589  0.85553  Biso   1.000  C
  C901     1.0000 0.52559  0.25225  0.86233  Biso   1.000  C
  C902     1.0000 0.35959  0.78180  0.90513  Biso   1.000  C
  N101     1.0000 0.45277  0.77309  0.90568  Biso   1.000  N
  N102     1.0000 0.45281  0.77309  0.90568  Biso   1.000  N
  N103     1.0000 0.46528  0.69330  0.87172  Biso   1.000  N
  C903     1.0000 0.38488  0.64579  0.84614  Biso   1.000  C
  H667     1.0000 0.99186  0.45377  0.80904  Biso   1.000  H
  C904     1.0000 0.02671  0.47212  0.83953  Biso   1.000  C
  C905     1.0000 0.02669  0.47207  0.83953  Biso   1.000  C
  H668     1.0000 0.87888  0.31610  0.85363  Biso   1.000  H
  C906     1.0000 0.96010  0.38728  0.86554  Biso   1.000  C
  C907     1.0000 0.82850  0.91952  0.74845  Biso   1.000  C
  C908     1.0000 0.82848  0.91947  0.74845  Biso   1.000  C
  H669     1.0000 0.89500  0.00049  0.73394  Biso   1.000  H
  C909     1.0000 0.85930  0.91351  0.78653  Biso   1.000  C
  H670     1.0000 0.94360  0.99041  0.79513  Biso   1.000  H
  H671     1.0000 0.94358  0.99037  0.79513  Biso   1.000  H
  C910     1.0000 0.45380  0.12368  0.87284  Biso   1.000  C
  H672     1.0000 0.40099  0.11747  0.84693  Biso   1.000  H
  H673     1.0000 0.55107  0.29678  0.85804  Biso   1.000  H
  C911     1.0000 0.54230  0.23322  0.88134  Biso   1.000  C
  H674     1.0000 0.55111  0.29678  0.85804  Biso   1.000  H
  C912     1.0000 0.54227  0.23317  0.88134  Biso   1.000  C
  C913     1.0000 0.39851  0.82261  0.92093  Biso   1.000  C
  H675     1.0000 0.31748  0.77427  0.90124  Biso   1.000  H
  C914     1.0000 0.45561  0.81581  0.92164  Biso   1.000  C
  H676     1.0000 0.48261  0.76218  0.90283  Biso   1.000  H
  C915     1.0000 0.48527  0.66429  0.85658  Biso   1.000  C
  C916     1.0000 0.48531  0.66429  0.85658  Biso   1.000  C
  H677     1.0000 0.48827  0.71419  0.88323  Biso   1.000  H
  C917     1.0000 0.43199  0.63239  0.84089  Biso   1.000  C
  H678     1.0000 0.34577  0.63239  0.83814  Biso   1.000  H
  H679     1.0000 0.34581  0.63239  0.83814  Biso   1.000  H
  H680     1.0000 0.06310  0.51380  0.83623  Biso   1.000  H
  C918     1.0000 0.01837  0.44839  0.86123  Biso   1.000  C
  H681     1.0000 0.06308  0.51375  0.83623  Biso   1.000  H
  C919     1.0000 0.01841  0.44839  0.86123  Biso   1.000  C
  C920     1.0000 0.95081  0.36532  0.88864  Biso   1.000  C
  C921     1.0000 0.95079  0.36527  0.88864  Biso   1.000  C
  H682     1.0000 0.79859  0.90250  0.73674  Biso   1.000  H
  C922     1.0000 0.81701  0.88552  0.76882  Biso   1.000  C
  C923     1.0000 0.81698  0.88547  0.76882  Biso   1.000  C
  H683     1.0000 0.84978  0.89218  0.80023  Biso   1.000  H
  C924     1.0000 0.50680  0.16639  0.88683  Biso   1.000  C
  H684     1.0000 0.42949  0.07828  0.87603  Biso   1.000  H
  H685     1.0000 0.57641  0.26400  0.89044  Biso   1.000  H
  H686     1.0000 0.38969  0.85030  0.92974  Biso   1.000  H
  C925     1.0000 0.50738  0.84731  0.93631  Biso   1.000  C
  C926     1.0000 0.50740  0.84726  0.93631  Biso   1.000  C
  C927     1.0000 0.54260  0.66218  0.85587  Biso   1.000  C
  H687     1.0000 0.43100  0.60651  0.82894  Biso   1.000  H
  H688     1.0000 0.04967  0.47178  0.87224  Biso   1.000  H
  N104     1.0000 0.94229  0.29981  0.89122  Biso   1.000  N
  H689     1.0000 0.98939  0.39687  0.89713  Biso   1.000  H
  N105     1.0000 0.94227  0.29976  0.89122  Biso   1.000  N
  H690     1.0000 0.91186  0.36537  0.89454  Biso   1.000  H
  C928     1.0000 0.75420  0.81982  0.77078  Biso   1.000  C
  C929     1.0000 0.75418  0.81977  0.77078  Biso   1.000  C
  C930     1.0000 0.52010  0.14130  0.90713  Biso   1.000  C
  C931     1.0000 0.50269  0.89301  0.95223  Biso   1.000  C
  C932     1.0000 0.56511  0.84482  0.93615  Biso   1.000  C
  C933     1.0000 0.56508  0.84477  0.93615  Biso   1.000  C
  C934     1.0000 0.59579  0.69780  0.87038  Biso   1.000  C
  C935     1.0000 0.55300  0.62358  0.83872  Biso   1.000  C
  C936     1.0000 0.99009  0.28939  0.88123  Biso   1.000  C
  C937     1.0000 0.89759  0.25387  0.90383  Biso   1.000  C
  C938     1.0000 0.75691  0.77261  0.78412  Biso   1.000  C
  C939     1.0000 0.69808  0.80460  0.75991  Biso   1.000  C
  C940     1.0000 0.58379  0.17300  0.91653  Biso   1.000  C
  C941     1.0000 0.47042  0.08210  0.91784  Biso   1.000  C
  C942     1.0000 0.45641  0.86292  0.96933  Biso   1.000  C
  C943     1.0000 0.45639  0.86287  0.96933  Biso   1.000  C
  C944     1.0000 0.53511  0.95710  0.95102  Biso   1.000  C
  C945     1.0000 0.61999  0.88019  0.95003  Biso   1.000  C
  N106     1.0000 0.58168  0.81042  0.92236  Biso   1.000  N
  N107     1.0000 0.58170  0.81037  0.92236  Biso   1.000  N
  C946     1.0000 0.65639  0.69809  0.86894  Biso   1.000  C
  N108     1.0000 0.59497  0.73278  0.88769  Biso   1.000  N
  C947     1.0000 0.56321  0.64501  0.81660  Biso   1.000  C
  C948     1.0000 0.54718  0.56297  0.84324  Biso   1.000  C
  C949     1.0000 0.98430  0.22740  0.88255  Biso   1.000  C
  H691     1.0000 0.02577  0.32398  0.87373  Biso   1.000  H
  C950     1.0000 0.89348  0.19541  0.90676  Biso   1.000  C
  H692     1.0000 0.86729  0.26258  0.91113  Biso   1.000  H
  C951     1.0000 0.89346  0.19536  0.90676  Biso   1.000  C
  H693     1.0000 0.79549  0.78249  0.79194  Biso   1.000  H
  C952     1.0000 0.70070  0.71062  0.78543  Biso   1.000  C
  C953     1.0000 0.70068  0.71057  0.78543  Biso   1.000  C
  C954     1.0000 0.64370  0.74609  0.76284  Biso   1.000  C
  H694     1.0000 0.69729  0.83547  0.75023  Biso   1.000  H
  C955     1.0000 0.48802  0.06111  0.93554  Biso   1.000  C
  H695     1.0000 0.42689  0.05910  0.91253  Biso   1.000  H
  C956     1.0000 0.48799  0.06106  0.93554  Biso   1.000  C
  H696     1.0000 0.61788  0.21170  0.91013  Biso   1.000  H
  C957     1.0000 0.59559  0.14898  0.93403  Biso   1.000  C
  H697     1.0000 0.43487  0.81678  0.97144  Biso   1.000  H
  C958     1.0000 0.44320  0.90250  0.98303  Biso   1.000  C
  C959     1.0000 0.52711  0.99550  0.96611  Biso   1.000  C
  H698     1.0000 0.56489  0.97760  0.93944  Biso   1.000  H
  H699     1.0000 0.62270  0.90891  0.96133  Biso   1.000  H
  C960     1.0000 0.66577  0.86718  0.94503  Biso   1.000  C
  C961     1.0000 0.64280  0.82309  0.92650  Biso   1.000  C
  H700     1.0000 0.55608  0.78371  0.91224  Biso   1.000  H
  H701     1.0000 0.66738  0.67549  0.85854  Biso   1.000  H
  C962     1.0000 0.69456  0.73586  0.88474  Biso   1.000  C
  H702     1.0000 0.56280  0.73851  0.89224  Biso   1.000  H
  C963     1.0000 0.65719  0.75739  0.89656  Biso   1.000  C
  H703     1.0000 0.56278  0.68391  0.81304  Biso   1.000  H
  C964     1.0000 0.57278  0.61272  0.80114  Biso   1.000  C
  C965     1.0000 0.57280  0.61267  0.80114  Biso   1.000  C
  C966     1.0000 0.55460  0.52789  0.82713  Biso   1.000  C
  H704     1.0000 0.53807  0.54619  0.85763  Biso   1.000  H
  C967     1.0000 0.93439  0.18019  0.89590  Biso   1.000  C
  H705     1.0000 0.01298  0.21747  0.87473  Biso   1.000  H
  H706     1.0000 0.86180  0.16449  0.91643  Biso   1.000  H
  N109     1.0000 0.64249  0.70020  0.77546  Biso   1.000  N
  H707     1.0000 0.70177  0.67598  0.79293  Biso   1.000  H
  H708     1.0000 0.60471  0.73743  0.75554  Biso   1.000  H
  H709     1.0000 0.60469  0.73738  0.75554  Biso   1.000  H
  N110     1.0000 0.55049  0.09589  0.94334  Biso   1.000  N
  H710     1.0000 0.45699  0.02202  0.94253  Biso   1.000  H
  H711     1.0000 0.45701  0.02197  0.94253  Biso   1.000  H
  H712     1.0000 0.63828  0.17089  0.94014  Biso   1.000  H
  C968     1.0000 0.48240  0.97031  0.98284  Biso   1.000  C
  H713     1.0000 0.40677  0.88268  0.99254  Biso   1.000  H
  H714     1.0000 0.40681  0.88268  0.99254  Biso   1.000  H
  C969     1.0000 0.56340  0.06859  0.96323  Biso   1.000  C
  H715     1.0000 0.70666  0.88337  0.95223  Biso   1.000  H
  C970     1.0000 0.67779  0.79672  0.91481  Biso   1.000  C
  C971     1.0000 0.67776  0.79668  0.91481  Biso   1.000  C
  H716     1.0000 0.73829  0.74638  0.88764  Biso   1.000  H
  C972     1.0000 0.58550  0.63469  0.77803  Biso   1.000  C
  C973     1.0000 0.56998  0.55162  0.80543  Biso   1.000  C
  C974     1.0000 0.57000  0.55157  0.80543  Biso   1.000  C
  H717     1.0000 0.54931  0.48621  0.83043  Biso   1.000  H
  C975     1.0000 0.93149  0.11449  0.89784  Biso   1.000  C
  H718     1.0000 0.47862  0.99731  0.99343  Biso   1.000  H
  H719     1.0000 0.47859  0.99726  0.99343  Biso   1.000  H
  H720     1.0000 0.55338  0.08787  0.97594  Biso   1.000  H
  H721     1.0000 0.61077  0.08376  0.96373  Biso   1.000  H
  C976     1.0000 0.74511  0.82070  0.92234  Biso   1.000  C
  H722     1.0000 0.54647  0.63459  0.77214  Biso   1.000  H
  H723     1.0000 0.59249  0.60308  0.76953  Biso   1.000  H
  H724     1.0000 0.57790  0.52823  0.79443  Biso   1.000  H
  H725     1.0000 0.57788  0.52818  0.79443  Biso   1.000  H
  C977     1.0000 0.94580  0.08650  0.88014  Biso   1.000  C
  C978     1.0000 0.90898  0.08048  0.91823  Biso   1.000  C
  C979     1.0000 0.75531  0.79873  0.94243  Biso   1.000  C
  C980     1.0000 0.79881  0.86150  0.91100  Biso   1.000  C
  C981     1.0000 0.75529  0.79868  0.94243  Biso   1.000  C
  H726     1.0000 0.95759  0.10778  0.86643  Biso   1.000  H
  C982     1.0000 0.94228  0.02828  0.88323  Biso   1.000  C
  H727     1.0000 0.89610  0.09751  0.92993  Biso   1.000  H
  C983     1.0000 0.90747  0.02246  0.91942  Biso   1.000  C
  H728     1.0000 0.89607  0.09746  0.92993  Biso   1.000  H
  C984     1.0000 0.86379  0.88400  0.91863  Biso   1.000  C
  H729     1.0000 0.79329  0.87613  0.89724  Biso   1.000  H
  H730     1.0000 0.79326  0.87608  0.89724  Biso   1.000  H
  C985     1.0000 0.82008  0.81972  0.95013  Biso   1.000  C
  H731     1.0000 0.71869  0.76972  0.95103  Biso   1.000  H
  C986     1.0000 0.82010  0.81967  0.95013  Biso   1.000  C
  H732     1.0000 0.71866  0.76967  0.95103  Biso   1.000  H
  N111     1.0000 0.92366  0.99418  0.90257  Biso   1.000  N
  H733     1.0000 0.95319  0.00959  0.87153  Biso   1.000  H
  H734     1.0000 0.89451  0.99951  0.93274  Biso   1.000  H
  H735     1.0000 0.89449  0.99947  0.93274  Biso   1.000  H
  C987     1.0000 0.92307  0.93401  0.90534  Biso   1.000  C
  C988     1.0000 0.87196  0.86077  0.93834  Biso   1.000  C
  C989     1.0000 0.92311  0.93401  0.90534  Biso   1.000  C
  H736     1.0000 0.82619  0.80431  0.96363  Biso   1.000  H
  H737     1.0000 0.91478  0.87422  0.94344  Biso   1.000  H
  H738     1.0000 0.91476  0.87417  0.94344  Biso   1.000  H
  H739     1.0000 0.96389  0.94262  0.91264  Biso   1.000  H
  H740     1.0000 0.96387  0.94257  0.91264  Biso   1.000  H
  H741     1.0000 0.92207  0.91507  0.89093  Biso   1.000  H
  Ne1      1.0000 0.66932  0.01370  0.33313  Biso   1.000  Ne
  He1      1.0000 0.61780  0.06148  0.45804  Biso   1.000  He
  He2      1.0000 0.92671  0.07774  0.29299  Biso   1.000  He
  He3      1.0000 0.34055  0.85245  0.34497  Biso   1.000  He
  He4      1.0000 0.58598  0.94360  0.22955  Biso   1.000  He
  Ar1      1.0000 0.66052  0.00052  0.33386  Biso   1.000  Ar
  Ne2      1.0000 0.33185  0.33185  0.00000  Biso   1.000  Ne
  He5      1.0000 0.41667  0.35931  0.10625  Biso   1.000  He
  He6      1.0000 0.03388  0.11189  0.03136  Biso   1.000  He
  He7      1.0000 0.63732  0.49631  0.98989  Biso   1.000  He
  He8      1.0000 0.38450  0.44660  0.87331  Biso   1.000  He
  Ar2      1.0000 0.35711  0.35726  0.99996  Biso   1.000  Ar
  Ne3      1.0000 0.00701  0.65062  0.16628  Biso   1.000  Ne
  He9      1.0000 0.71958  0.47635  0.21863  Biso   1.000  He
  He10     1.0000 0.08263  0.39155  0.22016  Biso   1.000  He
  He11     1.0000 0.86679  0.80859  0.15189  Biso   1.000  He
  He12     1.0000 0.05566  0.71817  0.06953  Biso   1.000  He
  Ar3      1.0000 0.00277  0.64717  0.16539  Biso   1.000  Ar
  Ne4      1.0000 0.35258  0.35258  0.50000  Biso   1.000  Ne
  He13     1.0000 0.58804  0.24292  0.55667  Biso   1.000  He
  He14     1.0000 0.64866  0.56752  0.46008  Biso   1.000  He
  He15     1.0000 0.05757  0.19093  0.51481  Biso   1.000  He
  He16     1.0000 0.27655  0.34251  0.39359  Biso   1.000  He
  Ar4      1.0000 0.35257  0.35259  0.50000  Biso   1.000  Ar
  Ne5      1.0000 0.01898  0.67482  0.66723  Biso   1.000  Ne
  He17     1.0000 0.94435  0.58631  0.76962  Biso   1.000  He
  He18     1.0000 0.07004  0.93490  0.69401  Biso   1.000  He
  He19     1.0000 0.18317  0.44944  0.67906  Biso   1.000  He
  He20     1.0000 0.06107  0.61953  0.54340  Biso   1.000  He
  Ar5      1.0000 0.00022  0.66222  0.66644  Biso   1.000  Ar
  Ne6      1.0000 0.64692  0.00724  0.83064  Biso   1.000  Ne
  He21     1.0000 0.75624  0.27801  0.88518  Biso   1.000  He
  He22     1.0000 0.45367  0.07544  0.79622  Biso   1.000  He
  He23     1.0000 0.82728  0.86003  0.84960  Biso   1.000  He
  He24     1.0000 0.47908  0.72339  0.78170  Biso   1.000  He
  Ar6      1.0000 0.64521  0.99983  0.83328  Biso   1.000  Ar
