data_image0
_cell_length_a       11.121
_cell_length_b       27.95
_cell_length_c       29.147
_cell_angle_alpha    90
_cell_angle_beta     90.86
_cell_angle_gamma    90

_symmetry_space_group_name_H-M    "P 1"
_symmetry_int_tables_number       1

loop_
  _symmetry_equiv_pos_as_xyz
  'x, y, z'

loop_
  _atom_site_label
  _atom_site_occupancy
  _atom_site_fract_x
  _atom_site_fract_y
  _atom_site_fract_z
  _atom_site_thermal_displace_type
  _atom_site_B_iso_or_equiv
  _atom_site_type_symbol
  C1       1.0000 0.44017  0.43803  0.46209  Biso   1.000  C
  C2       1.0000 0.32910  0.42068  0.47537  Biso   1.000  C
  C3       1.0000 0.54644  0.42097  0.48220  Biso   1.000  C
  O1       1.0000 0.43584  0.47138  0.42743  Biso   1.000  O
  O2       1.0000 0.22488  0.43453  0.45224  Biso   1.000  O
  C4       1.0000 0.32464  0.38705  0.51047  Biso   1.000  C
  C5       1.0000 0.54105  0.38680  0.51665  Biso   1.000  C
  H1       1.0000 0.62204  0.43259  0.47238  Biso   1.000  H
  C6       1.0000 0.54654  0.49360  0.41628  Biso   1.000  C
  C7       1.0000 0.18301  0.48107  0.46453  Biso   1.000  C
  C8       1.0000 0.43038  0.37102  0.53102  Biso   1.000  C
  O3       1.0000 0.21296  0.37177  0.52186  Biso   1.000  O
  C9       1.0000 0.65513  0.36737  0.54094  Biso   1.000  C
  H2       1.0000 0.60220  0.46941  0.40468  Biso   1.000  H
  H3       1.0000 0.53231  0.51800  0.39271  Biso   1.000  H
  H4       1.0000 0.58144  0.50859  0.44380  Biso   1.000  H
  H5       1.0000 0.24585  0.50490  0.45729  Biso   1.000  H
  H6       1.0000 0.11051  0.48880  0.44579  Biso   1.000  H
  C10      1.0000 0.15364  0.48472  0.51349  Biso   1.000  C
  H7       1.0000 0.42650  0.34869  0.55559  Biso   1.000  H
  C11      1.0000 0.20481  0.34730  0.56396  Biso   1.000  C
  C12      1.0000 0.77044  0.37782  0.51438  Biso   1.000  C
  C13      1.0000 0.64524  0.31292  0.54787  Biso   1.000  C
  C14      1.0000 0.66465  0.39145  0.58870  Biso   1.000  C
  C15      1.0000 0.13661  0.48501  0.55374  Biso   1.000  C
  H8       1.0000 0.25724  0.36279  0.58688  Biso   1.000  H
  H9       1.0000 0.12151  0.34809  0.57439  Biso   1.000  H
  H10      1.0000 0.23001  0.31399  0.55991  Biso   1.000  H
  C16      1.0000 0.87985  0.35828  0.54132  Biso   1.000  C
  H11      1.0000 0.76564  0.36250  0.48381  Biso   1.000  H
  H12      1.0000 0.77926  0.41281  0.50999  Biso   1.000  H
  C17      1.0000 0.75394  0.29281  0.57505  Biso   1.000  C
  H13      1.0000 0.57054  0.30569  0.56462  Biso   1.000  H
  H14      1.0000 0.64000  0.29699  0.51761  Biso   1.000  H
  C18      1.0000 0.77580  0.37331  0.61636  Biso   1.000  C
  H15      1.0000 0.67052  0.42651  0.58479  Biso   1.000  H
  H16      1.0000 0.59079  0.38462  0.60610  Biso   1.000  H
  C19      1.0000 0.11712  0.48297  0.60010  Biso   1.000  C
  H17      1.0000 0.95424  0.36512  0.52361  Biso   1.000  H
  C20      1.0000 0.88952  0.38358  0.58822  Biso   1.000  C
  C21      1.0000 0.86832  0.30404  0.54773  Biso   1.000  C
  C22      1.0000 0.76324  0.31878  0.62175  Biso   1.000  C
  C23      1.0000 0.73924  0.23921  0.58541  Biso   1.000  C
  C24      1.0000 0.78337  0.39871  0.66254  Biso   1.000  C
  C25      1.0000 0.10028  0.47914  0.64062  Biso   1.000  C
  H18      1.0000 0.96158  0.37191  0.60521  Biso   1.000  H
  H19      1.0000 0.89824  0.41850  0.58359  Biso   1.000  H
  H20      1.0000 0.86371  0.28819  0.51740  Biso   1.000  H
  H21      1.0000 0.93993  0.29170  0.56441  Biso   1.000  H
  H22      1.0000 0.83370  0.30640  0.63911  Biso   1.000  H
  H23      1.0000 0.69048  0.31181  0.63969  Biso   1.000  H
  C26      1.0000 0.84110  0.21045  0.59412  Biso   1.000  C
  C27      1.0000 0.62714  0.21871  0.59062  Biso   1.000  C
  C28      1.0000 0.77543  0.44862  0.66429  Biso   1.000  C
  C29      1.0000 0.79946  0.37338  0.70348  Biso   1.000  C
  C30      1.0000 0.08332  0.47284  0.68948  Biso   1.000  C
  H24      1.0000 0.91916  0.22318  0.58970  Biso   1.000  H
  C31      1.0000 0.82839  0.16354  0.60922  Biso   1.000  C
  C32      1.0000 0.61443  0.17159  0.60586  Biso   1.000  C
  H25      1.0000 0.55727  0.23699  0.58369  Biso   1.000  H
  H26      1.0000 0.76464  0.46630  0.63671  Biso   1.000  H
  C33      1.0000 0.78292  0.47277  0.70592  Biso   1.000  C
  C34      1.0000 0.80712  0.39782  0.74507  Biso   1.000  C
  H27      1.0000 0.80528  0.33950  0.70300  Biso   1.000  H
  H28      1.0000 0.03859  0.44290  0.69521  Biso   1.000  H
  H29      1.0000 0.03633  0.49989  0.70180  Biso   1.000  H
  O4       1.0000 0.20020  0.47084  0.71178  Biso   1.000  O
  C35      1.0000 0.71471  0.14411  0.61564  Biso   1.000  C
  O5       1.0000 0.92338  0.13377  0.61934  Biso   1.000  O
  O6       1.0000 0.50481  0.15120  0.61255  Biso   1.000  O
  C36      1.0000 0.79954  0.44701  0.74671  Biso   1.000  C
  O7       1.0000 0.77411  0.52107  0.71068  Biso   1.000  O
  O8       1.0000 0.81903  0.37603  0.78724  Biso   1.000  O
  C37      1.0000 0.20021  0.44701  0.75327  Biso   1.000  C
  O9       1.0000 0.70232  0.09717  0.62967  Biso   1.000  O
  C38      1.0000 0.04096  0.15138  0.61162  Biso   1.000  C
  C39      1.0000 0.39790  0.17030  0.59210  Biso   1.000  C
  C40      1.0000 0.46994  0.12061  0.59021  Biso   1.000  C
  O10      1.0000 0.79955  0.47084  0.78823  Biso   1.000  O
  C41      1.0000 0.77297  0.54934  0.67016  Biso   1.000  C
  C42      1.0000 0.83310  0.32540  0.78837  Biso   1.000  C
  C43      1.0000 0.21692  0.47277  0.79406  Biso   1.000  C
  C44      1.0000 0.19272  0.39782  0.75495  Biso   1.000  C
  C45      1.0000 0.72901  0.08862  0.67733  Biso   1.000  C
  H30      1.0000 0.04913  0.15971  0.57920  Biso   1.000  H
  H31      1.0000 0.05502  0.17989  0.63050  Biso   1.000  H
  H32      1.0000 0.10010  0.12669  0.61989  Biso   1.000  H
  H33      1.0000 0.34283  0.14411  0.58421  Biso   1.000  H
  H34      1.0000 0.35910  0.19191  0.61379  Biso   1.000  H
  H35      1.0000 0.41830  0.18801  0.56431  Biso   1.000  H
  H36      1.0000 0.53597  0.09839  0.58400  Biso   1.000  H
  H37      1.0000 0.40601  0.10361  0.60631  Biso   1.000  H
  H38      1.0000 0.43814  0.13342  0.56118  Biso   1.000  H
  C46      1.0000 0.91652  0.47284  0.81053  Biso   1.000  C
  H39      1.0000 0.70298  0.54079  0.65102  Biso   1.000  H
  H40      1.0000 0.76853  0.58329  0.67840  Biso   1.000  H
  H41      1.0000 0.84684  0.54351  0.65301  Biso   1.000  H
  H42      1.0000 0.90564  0.31639  0.77180  Biso   1.000  H
  H43      1.0000 0.84047  0.31470  0.82031  Biso   1.000  H
  H44      1.0000 0.76275  0.31020  0.77379  Biso   1.000  H
  C47      1.0000 0.22440  0.44862  0.83569  Biso   1.000  C
  O11      1.0000 0.22564  0.52107  0.78933  Biso   1.000  O
  C48      1.0000 0.20029  0.37338  0.79650  Biso   1.000  C
  O12      1.0000 0.18072  0.37603  0.71274  Biso   1.000  O
  H45      1.0000 0.75775  0.05531  0.68100  Biso   1.000  H
  H46      1.0000 0.79495  0.11020  0.68728  Biso   1.000  H
  C49      1.0000 0.62650  0.09596  0.70715  Biso   1.000  C
  H47      1.0000 0.96116  0.44290  0.80480  Biso   1.000  H
  H48      1.0000 0.96351  0.49989  0.79818  Biso   1.000  H
  C50      1.0000 0.89946  0.47914  0.85936  Biso   1.000  C
  C51      1.0000 0.21638  0.39871  0.83744  Biso   1.000  C
  H49      1.0000 0.23520  0.46630  0.86331  Biso   1.000  H
  C52      1.0000 0.22678  0.54934  0.82985  Biso   1.000  C
  H50      1.0000 0.19447  0.33950  0.79702  Biso   1.000  H
  C53      1.0000 0.16674  0.32540  0.71161  Biso   1.000  C
  C54      1.0000 0.54495  0.09757  0.73464  Biso   1.000  C
  C55      1.0000 0.88263  0.48297  0.89992  Biso   1.000  C
  C56      1.0000 0.22395  0.37331  0.88366  Biso   1.000  C
  H51      1.0000 0.29677  0.54079  0.84900  Biso   1.000  H
  H52      1.0000 0.23131  0.58329  0.82158  Biso   1.000  H
  H53      1.0000 0.15300  0.54351  0.84701  Biso   1.000  H
  H54      1.0000 0.09411  0.31639  0.72818  Biso   1.000  H
  H55      1.0000 0.15928  0.31470  0.67970  Biso   1.000  H
  H56      1.0000 0.23700  0.31020  0.72619  Biso   1.000  H
  C57      1.0000 0.45480  0.09757  0.76538  Biso   1.000  C
  C58      1.0000 0.86314  0.48501  0.94628  Biso   1.000  C
  C59      1.0000 0.11023  0.38358  0.91176  Biso   1.000  C
  C60      1.0000 0.23660  0.31878  0.87823  Biso   1.000  C
  C61      1.0000 0.33519  0.39145  0.91131  Biso   1.000  C
  C62      1.0000 0.37324  0.09596  0.79283  Biso   1.000  C
  C63      1.0000 0.84611  0.48472  0.98652  Biso   1.000  C
  C64      1.0000 0.11999  0.35828  0.95866  Biso   1.000  C
  H57      1.0000 0.03817  0.37191  0.89481  Biso   1.000  H
  H58      1.0000 0.10160  0.41850  0.91639  Biso   1.000  H
  H59      1.0000 0.16605  0.30640  0.86091  Biso   1.000  H
  H60      1.0000 0.30927  0.31181  0.86029  Biso   1.000  H
  C65      1.0000 0.24590  0.29281  0.92497  Biso   1.000  C
  C66      1.0000 0.34462  0.36737  0.95907  Biso   1.000  C
  H61      1.0000 0.32923  0.42651  0.91519  Biso   1.000  H
  H62      1.0000 0.40896  0.38462  0.89391  Biso   1.000  H
  C67      1.0000 0.27074  0.08862  0.82268  Biso   1.000  C
  C68      1.0000 0.81692  0.48107  0.03545  Biso   1.000  C
  H63      1.0000 0.04560  0.36512  0.97640  Biso   1.000  H
  C69      1.0000 0.13143  0.30404  0.95228  Biso   1.000  C
  C70      1.0000 0.22940  0.37782  0.98560  Biso   1.000  C
  C71      1.0000 0.35460  0.31292  0.95211  Biso   1.000  C
  C72      1.0000 0.26060  0.23921  0.91461  Biso   1.000  C
  C73      1.0000 0.45879  0.38680  0.98333  Biso   1.000  C
  H64      1.0000 0.24200  0.05531  0.81901  Biso   1.000  H
  H65      1.0000 0.20480  0.11020  0.81270  Biso   1.000  H
  O13      1.0000 0.29743  0.09717  0.87034  Biso   1.000  O
  H66      1.0000 0.75408  0.50490  0.04269  Biso   1.000  H
  H67      1.0000 0.88941  0.48880  0.05419  Biso   1.000  H
  O14      1.0000 0.77505  0.43453  0.04774  Biso   1.000  O
  H68      1.0000 0.13604  0.28819  0.98261  Biso   1.000  H
  H69      1.0000 0.05991  0.29170  0.93560  Biso   1.000  H
  H70      1.0000 0.22058  0.41281  0.98999  Biso   1.000  H
  H71      1.0000 0.23429  0.36250  0.01621  Biso   1.000  H
  H72      1.0000 0.42930  0.30569  0.93540  Biso   1.000  H
  H73      1.0000 0.35975  0.29699  0.98241  Biso   1.000  H
  C74      1.0000 0.15864  0.21045  0.90586  Biso   1.000  C
  C75      1.0000 0.37270  0.21871  0.90936  Biso   1.000  C
  C76      1.0000 0.56936  0.37102  0.96896  Biso   1.000  C
  C77      1.0000 0.45349  0.42097  0.01778  Biso   1.000  C
  C78      1.0000 0.28504  0.14411  0.88438  Biso   1.000  C
  C79      1.0000 0.67083  0.42068  0.02465  Biso   1.000  C
  H74      1.0000 0.08059  0.22318  0.91032  Biso   1.000  H
  C80      1.0000 0.17136  0.16354  0.89079  Biso   1.000  C
  C81      1.0000 0.38541  0.17159  0.89415  Biso   1.000  C
  H75      1.0000 0.44248  0.23699  0.91629  Biso   1.000  H
  H76      1.0000 0.57325  0.34869  0.94439  Biso   1.000  H
  C82      1.0000 0.67511  0.38705  0.98951  Biso   1.000  C
  C83      1.0000 0.55985  0.43803  0.03793  Biso   1.000  C
  H77      1.0000 0.37789  0.43259  0.02760  Biso   1.000  H
  O15      1.0000 0.07637  0.13377  0.88064  Biso   1.000  O
  O16      1.0000 0.49494  0.15120  0.88746  Biso   1.000  O
  O17      1.0000 0.78688  0.37177  0.97815  Biso   1.000  O
  O18      1.0000 0.56418  0.47138  0.07255  Biso   1.000  O
  C84      1.0000 0.95878  0.15138  0.88836  Biso   1.000  C
  C85      1.0000 0.60185  0.17030  0.90791  Biso   1.000  C
  C86      1.0000 0.52990  0.12061  0.90980  Biso   1.000  C
  C87      1.0000 0.79494  0.34730  0.93605  Biso   1.000  C
  C88      1.0000 0.45339  0.49360  0.08373  Biso   1.000  C
  H78      1.0000 0.95071  0.15971  0.92082  Biso   1.000  H
  H79      1.0000 0.94482  0.17989  0.86948  Biso   1.000  H
  H80      1.0000 0.89965  0.12669  0.88009  Biso   1.000  H
  H81      1.0000 0.65692  0.14411  0.91581  Biso   1.000  H
  H82      1.0000 0.64065  0.19191  0.88619  Biso   1.000  H
  H83      1.0000 0.58145  0.18801  0.93571  Biso   1.000  H
  H84      1.0000 0.46378  0.09839  0.91601  Biso   1.000  H
  H85      1.0000 0.59374  0.10361  0.89371  Biso   1.000  H
  H86      1.0000 0.56170  0.13342  0.93880  Biso   1.000  H
  H87      1.0000 0.74260  0.36279  0.91310  Biso   1.000  H
  H88      1.0000 0.87824  0.34809  0.92559  Biso   1.000  H
  H89      1.0000 0.76974  0.31399  0.94010  Biso   1.000  H
  H90      1.0000 0.39773  0.46941  0.09530  Biso   1.000  H
  H91      1.0000 0.46762  0.51800  0.10731  Biso   1.000  H
  H92      1.0000 0.41849  0.50859  0.05621  Biso   1.000  H
  C89      1.0000 0.55969  0.56197  0.53792  Biso   1.000  C
  C90      1.0000 0.45342  0.57903  0.51781  Biso   1.000  C
  C91      1.0000 0.67076  0.57932  0.52464  Biso   1.000  C
  O19      1.0000 0.56402  0.52862  0.57254  Biso   1.000  O
  C92      1.0000 0.45881  0.61320  0.48336  Biso   1.000  C
  H93      1.0000 0.37783  0.56741  0.52759  Biso   1.000  H
  C93      1.0000 0.67522  0.61295  0.48951  Biso   1.000  C
  O20      1.0000 0.77499  0.56547  0.54773  Biso   1.000  O
  C94      1.0000 0.45332  0.50640  0.58373  Biso   1.000  C
  C95      1.0000 0.34474  0.63263  0.45907  Biso   1.000  C
  C96      1.0000 0.56939  0.62898  0.46895  Biso   1.000  C
  O21      1.0000 0.78691  0.62823  0.47815  Biso   1.000  O
  C97      1.0000 0.81686  0.51893  0.53548  Biso   1.000  C
  H94      1.0000 0.39757  0.53059  0.59529  Biso   1.000  H
  H95      1.0000 0.46747  0.48200  0.60730  Biso   1.000  H
  H96      1.0000 0.41843  0.49141  0.55621  Biso   1.000  H
  C98      1.0000 0.33522  0.60855  0.41131  Biso   1.000  C
  C99      1.0000 0.22942  0.62218  0.48559  Biso   1.000  C
  C100     1.0000 0.35462  0.68708  0.45210  Biso   1.000  C
  H97      1.0000 0.57337  0.65131  0.44438  Biso   1.000  H
  C101     1.0000 0.79505  0.65270  0.43605  Biso   1.000  C
  H98      1.0000 0.75402  0.49510  0.54269  Biso   1.000  H
  H99      1.0000 0.88935  0.51120  0.55418  Biso   1.000  H
  C102     1.0000 0.84622  0.51528  0.48652  Biso   1.000  C
  C103     1.0000 0.22407  0.62669  0.38365  Biso   1.000  C
  H100     1.0000 0.32934  0.57349  0.41518  Biso   1.000  H
  H101     1.0000 0.40908  0.61538  0.39391  Biso   1.000  H
  C104     1.0000 0.12001  0.64172  0.45866  Biso   1.000  C
  H102     1.0000 0.23423  0.63750  0.51620  Biso   1.000  H
  H103     1.0000 0.22061  0.58719  0.48999  Biso   1.000  H
  C105     1.0000 0.24592  0.70719  0.42496  Biso   1.000  C
  H104     1.0000 0.42932  0.69431  0.43539  Biso   1.000  H
  H105     1.0000 0.35986  0.70301  0.48240  Biso   1.000  H
  H106     1.0000 0.74262  0.63721  0.41309  Biso   1.000  H
  H107     1.0000 0.87836  0.65191  0.42561  Biso   1.000  H
  H108     1.0000 0.76985  0.68601  0.44009  Biso   1.000  H
  C106     1.0000 0.86325  0.51499  0.44627  Biso   1.000  C
  C107     1.0000 0.21649  0.60129  0.33747  Biso   1.000  C
  C108     1.0000 0.11034  0.61642  0.41175  Biso   1.000  C
  C109     1.0000 0.23662  0.68122  0.37823  Biso   1.000  C
  H109     1.0000 0.04563  0.63488  0.47640  Biso   1.000  H
  C110     1.0000 0.13154  0.69596  0.45228  Biso   1.000  C
  C111     1.0000 0.26062  0.76079  0.41460  Biso   1.000  C
  C112     1.0000 0.88274  0.51703  0.39991  Biso   1.000  C
  C113     1.0000 0.22443  0.55138  0.33572  Biso   1.000  C
  C114     1.0000 0.20032  0.62662  0.29650  Biso   1.000  C
  H110     1.0000 0.03828  0.62809  0.39480  Biso   1.000  H
  H111     1.0000 0.10162  0.58150  0.41638  Biso   1.000  H
  H112     1.0000 0.16616  0.69360  0.36090  Biso   1.000  H
  H113     1.0000 0.30938  0.68819  0.36028  Biso   1.000  H
  H114     1.0000 0.13615  0.71181  0.48261  Biso   1.000  H
  H115     1.0000 0.05994  0.70830  0.43560  Biso   1.000  H
  C115     1.0000 0.15876  0.78955  0.40589  Biso   1.000  C
  C116     1.0000 0.37273  0.78129  0.40938  Biso   1.000  C
  C117     1.0000 0.89958  0.52086  0.35936  Biso   1.000  C
  C118     1.0000 0.21694  0.52723  0.29406  Biso   1.000  C
  H116     1.0000 0.23522  0.53370  0.36330  Biso   1.000  H
  C119     1.0000 0.19275  0.60218  0.25494  Biso   1.000  C
  H117     1.0000 0.19458  0.66050  0.29701  Biso   1.000  H
  H118     1.0000 0.08061  0.77682  0.41031  Biso   1.000  H
  C120     1.0000 0.17147  0.83646  0.39079  Biso   1.000  C
  C121     1.0000 0.38544  0.82841  0.39415  Biso   1.000  C
  H119     1.0000 0.44251  0.76301  0.41632  Biso   1.000  H
  C122     1.0000 0.91654  0.52716  0.31053  Biso   1.000  C
  O22      1.0000 0.22566  0.47893  0.28932  Biso   1.000  O
  C123     1.0000 0.20023  0.55299  0.25330  Biso   1.000  C
  O23      1.0000 0.18084  0.62397  0.21274  Biso   1.000  O
  C124     1.0000 0.28515  0.85589  0.38437  Biso   1.000  C
  O24      1.0000 0.07648  0.86623  0.38067  Biso   1.000  O
  O25      1.0000 0.49505  0.84880  0.38746  Biso   1.000  O
  H120     1.0000 0.96128  0.55710  0.30480  Biso   1.000  H
  H121     1.0000 0.96353  0.50011  0.29821  Biso   1.000  H
  O26      1.0000 0.79967  0.52916  0.28823  Biso   1.000  O
  C125     1.0000 0.22690  0.45066  0.32985  Biso   1.000  C
  O27      1.0000 0.20031  0.52916  0.21178  Biso   1.000  O
  C126     1.0000 0.16676  0.67460  0.21161  Biso   1.000  C
  O28      1.0000 0.29755  0.90283  0.37034  Biso   1.000  O
  C127     1.0000 0.95881  0.84862  0.38839  Biso   1.000  C
  C128     1.0000 0.60196  0.82970  0.40791  Biso   1.000  C
  C129     1.0000 0.52992  0.87939  0.40980  Biso   1.000  C
  C130     1.0000 0.79965  0.55299  0.24671  Biso   1.000  C
  H122     1.0000 0.29689  0.45921  0.34899  Biso   1.000  H
  H123     1.0000 0.23134  0.41671  0.32161  Biso   1.000  H
  H124     1.0000 0.15303  0.45649  0.34700  Biso   1.000  H
  C131     1.0000 0.08335  0.52716  0.18947  Biso   1.000  C
  H125     1.0000 0.09413  0.68361  0.22821  Biso   1.000  H
  H126     1.0000 0.15939  0.68530  0.17970  Biso   1.000  H
  H127     1.0000 0.23702  0.68980  0.22619  Biso   1.000  H
  C132     1.0000 0.27085  0.91138  0.32268  Biso   1.000  C
  H128     1.0000 0.95073  0.84029  0.42081  Biso   1.000  H
  H129     1.0000 0.94485  0.82011  0.36951  Biso   1.000  H
  H130     1.0000 0.89977  0.87331  0.38012  Biso   1.000  H
  H131     1.0000 0.65704  0.85589  0.41580  Biso   1.000  H
  H132     1.0000 0.64077  0.80809  0.38619  Biso   1.000  H
  H133     1.0000 0.58157  0.81199  0.43570  Biso   1.000  H
  H134     1.0000 0.46381  0.90161  0.41601  Biso   1.000  H
  H135     1.0000 0.59385  0.89639  0.39370  Biso   1.000  H
  H136     1.0000 0.56173  0.86658  0.43879  Biso   1.000  H
  C133     1.0000 0.78294  0.52723  0.20594  Biso   1.000  C
  C134     1.0000 0.80714  0.60218  0.24506  Biso   1.000  C
  H137     1.0000 0.03870  0.55710  0.19521  Biso   1.000  H
  H138     1.0000 0.03635  0.50011  0.20179  Biso   1.000  H
  C135     1.0000 0.10040  0.52086  0.14061  Biso   1.000  C
  H139     1.0000 0.24202  0.94469  0.31901  Biso   1.000  H
  H140     1.0000 0.20482  0.88980  0.31269  Biso   1.000  H
  C136     1.0000 0.37336  0.90404  0.29282  Biso   1.000  C
  C137     1.0000 0.77546  0.55138  0.16429  Biso   1.000  C
  O29      1.0000 0.77423  0.47893  0.21068  Biso   1.000  O
  C138     1.0000 0.79957  0.62662  0.20347  Biso   1.000  C
  O30      1.0000 0.81914  0.62397  0.28727  Biso   1.000  O
  C139     1.0000 0.11715  0.51703  0.10009  Biso   1.000  C
  C140     1.0000 0.45482  0.90243  0.26537  Biso   1.000  C
  C141     1.0000 0.78348  0.60129  0.16254  Biso   1.000  C
  H141     1.0000 0.76466  0.53370  0.13670  Biso   1.000  H
  C142     1.0000 0.77308  0.45066  0.17016  Biso   1.000  C
  H142     1.0000 0.80540  0.66050  0.20299  Biso   1.000  H
  C143     1.0000 0.83312  0.67460  0.28836  Biso   1.000  C
  C144     1.0000 0.13672  0.51499  0.05373  Biso   1.000  C
  C145     1.0000 0.54506  0.90243  0.23463  Biso   1.000  C
  C146     1.0000 0.77591  0.62669  0.11635  Biso   1.000  C
  H143     1.0000 0.70309  0.45921  0.15101  Biso   1.000  H
  H144     1.0000 0.76855  0.41671  0.17839  Biso   1.000  H
  H145     1.0000 0.84686  0.45649  0.15300  Biso   1.000  H
  H146     1.0000 0.90576  0.68361  0.27179  Biso   1.000  H
  H147     1.0000 0.84058  0.68530  0.32031  Biso   1.000  H
  H148     1.0000 0.76286  0.68980  0.27382  Biso   1.000  H
  C147     1.0000 0.15366  0.51528  0.01348  Biso   1.000  C
  C148     1.0000 0.62653  0.90404  0.20715  Biso   1.000  C
  C149     1.0000 0.66467  0.60855  0.08870  Biso   1.000  C
  C150     1.0000 0.88954  0.61642  0.08822  Biso   1.000  C
  C151     1.0000 0.76327  0.68122  0.12178  Biso   1.000  C
  C152     1.0000 0.18294  0.51893  0.96452  Biso   1.000  C
  C153     1.0000 0.72903  0.91138  0.17733  Biso   1.000  C
  C154     1.0000 0.65515  0.63263  0.04094  Biso   1.000  C
  H149     1.0000 0.67054  0.57349  0.08479  Biso   1.000  H
  H150     1.0000 0.59090  0.61538  0.10609  Biso   1.000  H
  C155     1.0000 0.87987  0.64172  0.04135  Biso   1.000  C
  H151     1.0000 0.96170  0.62809  0.10520  Biso   1.000  H
  H152     1.0000 0.89826  0.58150  0.08359  Biso   1.000  H
  C156     1.0000 0.75396  0.70719  0.07504  Biso   1.000  C
  H153     1.0000 0.83372  0.69360  0.13910  Biso   1.000  H
  H154     1.0000 0.69060  0.68819  0.13969  Biso   1.000  H
  H155     1.0000 0.24569  0.49510  0.95731  Biso   1.000  H
  H156     1.0000 0.11045  0.51120  0.94579  Biso   1.000  H
  O31      1.0000 0.22472  0.56547  0.95224  Biso   1.000  O
  H157     1.0000 0.75786  0.94469  0.18100  Biso   1.000  H
  H158     1.0000 0.79507  0.88980  0.18731  Biso   1.000  H
  O32      1.0000 0.70234  0.90283  0.12967  Biso   1.000  O
  C157     1.0000 0.54107  0.61320  0.01664  Biso   1.000  C
  C158     1.0000 0.77046  0.62218  0.01438  Biso   1.000  C
  C159     1.0000 0.64526  0.68708  0.04787  Biso   1.000  C
  H159     1.0000 0.95426  0.63488  0.02361  Biso   1.000  H
  C160     1.0000 0.86835  0.69596  0.04773  Biso   1.000  C
  C161     1.0000 0.73926  0.76079  0.08540  Biso   1.000  C
  C162     1.0000 0.32904  0.57932  0.97536  Biso   1.000  C
  C163     1.0000 0.71474  0.85589  0.11563  Biso   1.000  C
  C164     1.0000 0.43050  0.62898  0.03105  Biso   1.000  C
  C165     1.0000 0.54628  0.57903  0.98219  Biso   1.000  C
  H160     1.0000 0.77928  0.58719  0.00998  Biso   1.000  H
  H161     1.0000 0.76548  0.63750  0.98380  Biso   1.000  H
  H162     1.0000 0.57057  0.69431  0.06461  Biso   1.000  H
  H163     1.0000 0.64011  0.70301  0.01760  Biso   1.000  H
  H164     1.0000 0.86383  0.71181  0.01740  Biso   1.000  H
  H165     1.0000 0.93995  0.70830  0.06440  Biso   1.000  H
  C166     1.0000 0.84113  0.78955  0.09412  Biso   1.000  C
  C167     1.0000 0.62716  0.78129  0.09062  Biso   1.000  C
  C168     1.0000 0.32466  0.61295  0.01047  Biso   1.000  C
  C169     1.0000 0.44002  0.56197  0.96208  Biso   1.000  C
  C170     1.0000 0.82850  0.83646  0.10922  Biso   1.000  C
  C171     1.0000 0.61445  0.82841  0.10585  Biso   1.000  C
  H166     1.0000 0.42661  0.65131  0.05559  Biso   1.000  H
  H167     1.0000 0.62188  0.56741  0.97241  Biso   1.000  H
  H168     1.0000 0.91927  0.77682  0.08969  Biso   1.000  H
  H169     1.0000 0.55738  0.76301  0.08369  Biso   1.000  H
  O33      1.0000 0.21298  0.62823  0.02186  Biso   1.000  O
  O34      1.0000 0.43569  0.52862  0.92746  Biso   1.000  O
  O35      1.0000 0.92350  0.86623  0.11934  Biso   1.000  O
  O36      1.0000 0.50483  0.84880  0.11255  Biso   1.000  O
  C172     1.0000 0.20493  0.65270  0.06396  Biso   1.000  C
  C173     1.0000 0.54639  0.50640  0.91628  Biso   1.000  C
  C174     1.0000 0.04108  0.84862  0.11162  Biso   1.000  C
  C175     1.0000 0.39801  0.82970  0.09210  Biso   1.000  C
  C176     1.0000 0.46996  0.87939  0.09021  Biso   1.000  C
  H170     1.0000 0.25726  0.63721  0.08691  Biso   1.000  H
  H171     1.0000 0.12162  0.65191  0.07439  Biso   1.000  H
  H172     1.0000 0.23012  0.68601  0.05991  Biso   1.000  H
  H173     1.0000 0.60213  0.53059  0.90471  Biso   1.000  H
  H174     1.0000 0.53224  0.48200  0.89270  Biso   1.000  H
  H175     1.0000 0.58128  0.49141  0.94380  Biso   1.000  H
  H176     1.0000 0.04915  0.84029  0.07919  Biso   1.000  H
  H177     1.0000 0.05504  0.82011  0.13049  Biso   1.000  H
  H178     1.0000 0.10012  0.87331  0.11989  Biso   1.000  H
  H179     1.0000 0.34285  0.85589  0.08420  Biso   1.000  H
  H180     1.0000 0.35921  0.80809  0.11382  Biso   1.000  H
  H181     1.0000 0.41841  0.81199  0.06430  Biso   1.000  H
  H182     1.0000 0.53608  0.90161  0.08400  Biso   1.000  H
  H183     1.0000 0.40603  0.89639  0.10630  Biso   1.000  H
  H184     1.0000 0.43816  0.86658  0.06121  Biso   1.000  H
  C177     1.0000 0.02997  0.37939  0.40980  Biso   1.000  C
  O37      1.0000 0.99501  0.34880  0.38746  Biso   1.000  O
  C178     1.0000 0.10192  0.32970  0.40791  Biso   1.000  C
  H185     1.0000 0.96385  0.40161  0.41601  Biso   1.000  H
  H186     1.0000 0.09381  0.39639  0.39370  Biso   1.000  H
  H187     1.0000 0.06177  0.36658  0.43879  Biso   1.000  H
  C179     1.0000 0.88548  0.32841  0.39415  Biso   1.000  C
  C180     1.0000 0.88539  0.32841  0.39415  Biso   1.000  C
  H188     1.0000 0.14072  0.30809  0.38619  Biso   1.000  H
  H189     1.0000 0.08152  0.31199  0.43570  Biso   1.000  H
  H190     1.0000 0.15699  0.35589  0.41580  Biso   1.000  H
  C181     1.0000 0.78511  0.35589  0.38437  Biso   1.000  C
  C182     1.0000 0.87277  0.28129  0.40938  Biso   1.000  C
  O38      1.0000 0.79759  0.40283  0.37034  Biso   1.000  O
  O39      1.0000 0.79750  0.40283  0.37034  Biso   1.000  O
  C183     1.0000 0.67143  0.33646  0.39079  Biso   1.000  C
  C184     1.0000 0.76067  0.26079  0.41460  Biso   1.000  C
  H191     1.0000 0.94255  0.26301  0.41632  Biso   1.000  H
  C185     1.0000 0.77081  0.41138  0.32268  Biso   1.000  C
  C186     1.0000 0.65871  0.28955  0.40589  Biso   1.000  C
  O40      1.0000 0.57643  0.36623  0.38067  Biso   1.000  O
  C187     1.0000 0.74597  0.20719  0.42496  Biso   1.000  C
  C188     1.0000 0.87331  0.40404  0.29282  Biso   1.000  C
  H192     1.0000 0.74207  0.44469  0.31901  Biso   1.000  H
  H193     1.0000 0.70486  0.38980  0.31269  Biso   1.000  H
  H194     1.0000 0.58066  0.27682  0.41031  Biso   1.000  H
  C189     1.0000 0.45885  0.34862  0.38839  Biso   1.000  C
  C190     1.0000 0.85458  0.18708  0.45210  Biso   1.000  C
  C191     1.0000 0.63159  0.19596  0.45228  Biso   1.000  C
  C192     1.0000 0.63150  0.19596  0.45228  Biso   1.000  C
  C193     1.0000 0.73667  0.18122  0.37823  Biso   1.000  C
  C194     1.0000 0.95487  0.40243  0.26537  Biso   1.000  C
  H195     1.0000 0.45078  0.34029  0.42081  Biso   1.000  H
  H196     1.0000 0.44489  0.32011  0.36951  Biso   1.000  H
  H197     1.0000 0.39972  0.37331  0.38012  Biso   1.000  H
  H198     1.0000 0.44480  0.32011  0.36951  Biso   1.000  H
  C195     1.0000 0.84469  0.13263  0.45907  Biso   1.000  C
  H199     1.0000 0.92937  0.19431  0.43539  Biso   1.000  H
  H200     1.0000 0.85982  0.20301  0.48240  Biso   1.000  H
  C196     1.0000 0.62006  0.14172  0.45866  Biso   1.000  C
  H201     1.0000 0.63611  0.21181  0.48261  Biso   1.000  H
  H202     1.0000 0.55998  0.20830  0.43560  Biso   1.000  H
  H203     1.0000 0.55989  0.20830  0.43560  Biso   1.000  H
  C197     1.0000 0.72402  0.12669  0.38365  Biso   1.000  C
  H204     1.0000 0.66612  0.19360  0.36090  Biso   1.000  H
  H205     1.0000 0.80934  0.18819  0.36028  Biso   1.000  H
  C198     1.0000 0.04511  0.40243  0.23463  Biso   1.000  C
  C199     1.0000 0.04502  0.40243  0.23463  Biso   1.000  C
  C200     1.0000 0.95886  0.11320  0.48336  Biso   1.000  C
  C201     1.0000 0.83526  0.10855  0.41131  Biso   1.000  C
  C202     1.0000 0.72938  0.12218  0.48559  Biso   1.000  C
  C203     1.0000 0.61039  0.11642  0.41175  Biso   1.000  C
  H206     1.0000 0.54558  0.13488  0.47640  Biso   1.000  H
  C204     1.0000 0.61030  0.11642  0.41175  Biso   1.000  C
  C205     1.0000 0.71645  0.10129  0.33747  Biso   1.000  C
  C206     1.0000 0.12657  0.40404  0.20715  Biso   1.000  C
  C207     1.0000 0.95347  0.07903  0.51781  Biso   1.000  C
  C208     1.0000 0.95338  0.07903  0.51781  Biso   1.000  C
  C209     1.0000 0.06943  0.12898  0.46895  Biso   1.000  C
  H207     1.0000 0.72065  0.08719  0.48999  Biso   1.000  H
  H208     1.0000 0.73418  0.13750  0.51620  Biso   1.000  H
  H209     1.0000 0.90903  0.11538  0.39391  Biso   1.000  H
  H210     1.0000 0.82930  0.07349  0.41518  Biso   1.000  H
  H211     1.0000 0.53824  0.12809  0.39480  Biso   1.000  H
  H212     1.0000 0.60167  0.08150  0.41638  Biso   1.000  H
  C210     1.0000 0.72447  0.05138  0.33572  Biso   1.000  C
  C211     1.0000 0.70036  0.12662  0.29650  Biso   1.000  C
  C212     1.0000 0.22908  0.41138  0.17733  Biso   1.000  C
  C213     1.0000 0.05974  0.06197  0.53792  Biso   1.000  C
  H213     1.0000 0.87787  0.06741  0.52759  Biso   1.000  H
  H214     1.0000 0.87778  0.06741  0.52759  Biso   1.000  H
  C214     1.0000 0.17527  0.11295  0.48951  Biso   1.000  C
  C215     1.0000 0.17518  0.11295  0.48951  Biso   1.000  C
  H215     1.0000 0.07332  0.15131  0.44438  Biso   1.000  H
  C216     1.0000 0.71699  0.02723  0.29406  Biso   1.000  C
  H216     1.0000 0.73527  0.03370  0.36330  Biso   1.000  H
  C217     1.0000 0.69279  0.10218  0.25494  Biso   1.000  C
  H217     1.0000 0.69454  0.16050  0.29701  Biso   1.000  H
  O41      1.0000 0.20239  0.40283  0.12967  Biso   1.000  O
  H218     1.0000 0.25791  0.44469  0.18100  Biso   1.000  H
  H219     1.0000 0.29511  0.38980  0.18731  Biso   1.000  H
  H220     1.0000 0.25782  0.44469  0.18100  Biso   1.000  H
  H221     1.0000 0.29502  0.38980  0.18731  Biso   1.000  H
  C218     1.0000 0.17071  0.07932  0.52464  Biso   1.000  C
  O42      1.0000 0.06407  0.02862  0.57254  Biso   1.000  O
  O43      1.0000 0.06398  0.02862  0.57254  Biso   1.000  O
  O44      1.0000 0.28695  0.12823  0.47815  Biso   1.000  O
  O45      1.0000 0.28686  0.12823  0.47815  Biso   1.000  O
  C219     1.0000 0.70028  0.05299  0.25330  Biso   1.000  C
  O46      1.0000 0.72571  0.97893  0.28932  Biso   1.000  O
  O47      1.0000 0.68079  0.12397  0.21274  Biso   1.000  O
  C220     1.0000 0.21478  0.35589  0.11563  Biso   1.000  C
  O48      1.0000 0.27494  0.06547  0.54773  Biso   1.000  O
  C221     1.0000 0.95336  0.00640  0.58373  Biso   1.000  C
  C222     1.0000 0.95327  0.00640  0.58373  Biso   1.000  C
  C223     1.0000 0.29501  0.15270  0.43605  Biso   1.000  C
  O49      1.0000 0.70027  0.02916  0.21178  Biso   1.000  O
  C224     1.0000 0.72685  0.95066  0.32985  Biso   1.000  C
  C225     1.0000 0.66672  0.17460  0.21161  Biso   1.000  C
  C226     1.0000 0.32846  0.33646  0.10922  Biso   1.000  C
  C227     1.0000 0.11450  0.32841  0.10585  Biso   1.000  C
  C228     1.0000 0.31681  0.01893  0.53548  Biso   1.000  C
  H222     1.0000 0.96751  0.98200  0.60730  Biso   1.000  H
  H223     1.0000 0.91838  0.99141  0.55621  Biso   1.000  H
  H224     1.0000 0.89762  0.03059  0.59529  Biso   1.000  H
  H225     1.0000 0.37831  0.15191  0.42561  Biso   1.000  H
  H226     1.0000 0.26981  0.18601  0.44009  Biso   1.000  H
  H227     1.0000 0.24258  0.13721  0.41309  Biso   1.000  H
  C229     1.0000 0.58339  0.02716  0.18947  Biso   1.000  C
  H228     1.0000 0.79684  0.95921  0.34899  Biso   1.000  H
  H229     1.0000 0.73138  0.91671  0.32161  Biso   1.000  H
  H230     1.0000 0.65307  0.95649  0.34700  Biso   1.000  H
  H231     1.0000 0.59418  0.18361  0.22821  Biso   1.000  H
  H232     1.0000 0.65935  0.18530  0.17970  Biso   1.000  H
  H233     1.0000 0.73707  0.18980  0.22619  Biso   1.000  H
  C230     1.0000 0.34117  0.28955  0.09412  Biso   1.000  C
  O50      1.0000 0.42345  0.36623  0.11934  Biso   1.000  O
  C231     1.0000 0.12720  0.28129  0.09062  Biso   1.000  C
  O51      1.0000 0.00488  0.34880  0.11255  Biso   1.000  O
  C232     1.0000 0.34618  0.01528  0.48652  Biso   1.000  C
  H234     1.0000 0.38930  0.01120  0.55418  Biso   1.000  H
  H235     1.0000 0.25397  0.99510  0.54269  Biso   1.000  H
  C233     1.0000 0.60035  0.02086  0.14061  Biso   1.000  C
  H236     1.0000 0.53866  0.05710  0.19521  Biso   1.000  H
  H237     1.0000 0.53640  0.00011  0.20179  Biso   1.000  H
  C234     1.0000 0.23931  0.26079  0.08540  Biso   1.000  C
  H238     1.0000 0.41923  0.27682  0.08969  Biso   1.000  H
  C235     1.0000 0.54103  0.34862  0.11162  Biso   1.000  C
  H239     1.0000 0.05742  0.26301  0.08369  Biso   1.000  H
  H240     1.0000 0.05733  0.26301  0.08369  Biso   1.000  H
  C236     1.0000 0.89797  0.32970  0.09210  Biso   1.000  C
  C237     1.0000 0.97001  0.37939  0.09021  Biso   1.000  C
  C238     1.0000 0.36321  0.01499  0.44627  Biso   1.000  C
  C239     1.0000 0.61719  0.01703  0.10009  Biso   1.000  C
  C240     1.0000 0.25401  0.20719  0.07504  Biso   1.000  C
  H241     1.0000 0.54920  0.34029  0.07919  Biso   1.000  H
  H242     1.0000 0.55508  0.32011  0.13049  Biso   1.000  H
  H243     1.0000 0.60017  0.37331  0.11989  Biso   1.000  H
  H244     1.0000 0.84290  0.35589  0.08420  Biso   1.000  H
  H245     1.0000 0.85917  0.30809  0.11382  Biso   1.000  H
  H246     1.0000 0.91836  0.31199  0.06430  Biso   1.000  H
  H247     1.0000 0.90608  0.39639  0.10630  Biso   1.000  H
  H248     1.0000 0.93821  0.36658  0.06121  Biso   1.000  H
  H249     1.0000 0.03604  0.40161  0.08400  Biso   1.000  H
  C241     1.0000 0.38270  0.01703  0.39991  Biso   1.000  C
  C242     1.0000 0.63668  0.01499  0.05373  Biso   1.000  C
  C243     1.0000 0.26322  0.18122  0.12178  Biso   1.000  C
  C244     1.0000 0.36839  0.19596  0.04773  Biso   1.000  C
  C245     1.0000 0.14531  0.18708  0.04787  Biso   1.000  C
  C246     1.0000 0.39953  0.02086  0.35936  Biso   1.000  C
  C247     1.0000 0.65371  0.01528  0.01348  Biso   1.000  C
  C248     1.0000 0.27587  0.12669  0.11635  Biso   1.000  C
  H250     1.0000 0.33377  0.19360  0.13910  Biso   1.000  H
  H251     1.0000 0.19055  0.18819  0.13969  Biso   1.000  H
  C249     1.0000 0.37983  0.14172  0.04135  Biso   1.000  C
  H252     1.0000 0.36378  0.21181  0.01740  Biso   1.000  H
  H253     1.0000 0.43999  0.20830  0.06440  Biso   1.000  H
  C250     1.0000 0.15519  0.13263  0.04094  Biso   1.000  C
  H254     1.0000 0.07061  0.19431  0.06461  Biso   1.000  H
  H255     1.0000 0.14007  0.20301  0.01760  Biso   1.000  H
  C251     1.0000 0.41650  0.02716  0.31053  Biso   1.000  C
  C252     1.0000 0.68290  0.01893  0.96452  Biso   1.000  C
  C253     1.0000 0.28344  0.10129  0.16254  Biso   1.000  C
  C254     1.0000 0.38959  0.11642  0.08822  Biso   1.000  C
  C255     1.0000 0.16463  0.10855  0.08870  Biso   1.000  C
  H256     1.0000 0.45431  0.13488  0.02361  Biso   1.000  H
  C256     1.0000 0.27051  0.12218  0.01438  Biso   1.000  C
  C257     1.0000 0.04112  0.11320  0.01664  Biso   1.000  C
  O52      1.0000 0.29962  0.02916  0.28823  Biso   1.000  O
  H257     1.0000 0.46123  0.05710  0.30480  Biso   1.000  H
  H258     1.0000 0.46358  0.00011  0.29821  Biso   1.000  H
  H259     1.0000 0.46349  0.00011  0.29821  Biso   1.000  H
  O53      1.0000 0.72476  0.06547  0.95224  Biso   1.000  O
  H260     1.0000 0.74574  0.99510  0.95731  Biso   1.000  H
  H261     1.0000 0.61040  0.01120  0.94579  Biso   1.000  H
  C258     1.0000 0.29952  0.12662  0.20347  Biso   1.000  C
  C259     1.0000 0.27541  0.05138  0.16429  Biso   1.000  C
  H262     1.0000 0.46165  0.12809  0.10520  Biso   1.000  H
  H263     1.0000 0.39831  0.08150  0.08359  Biso   1.000  H
  H264     1.0000 0.17059  0.07349  0.08479  Biso   1.000  H
  H265     1.0000 0.09086  0.11538  0.10609  Biso   1.000  H
  H266     1.0000 0.26553  0.13750  0.98380  Biso   1.000  H
  H267     1.0000 0.27923  0.08719  0.00998  Biso   1.000  H
  C260     1.0000 0.93045  0.12898  0.03105  Biso   1.000  C
  C261     1.0000 0.04633  0.07903  0.98219  Biso   1.000  C
  C262     1.0000 0.29961  0.05299  0.24671  Biso   1.000  C
  C263     1.0000 0.82899  0.07932  0.97536  Biso   1.000  C
  C264     1.0000 0.30719  0.10218  0.24506  Biso   1.000  C
  H268     1.0000 0.30535  0.16050  0.20299  Biso   1.000  H
  C265     1.0000 0.28299  0.02723  0.20594  Biso   1.000  C
  H269     1.0000 0.26462  0.03370  0.13670  Biso   1.000  H
  H270     1.0000 0.92656  0.15131  0.05559  Biso   1.000  H
  C266     1.0000 0.82471  0.11295  0.01047  Biso   1.000  C
  C267     1.0000 0.94006  0.06197  0.96208  Biso   1.000  C
  C268     1.0000 0.93997  0.06197  0.96208  Biso   1.000  C
  H271     1.0000 0.12193  0.06741  0.97241  Biso   1.000  H
  O54      1.0000 0.31910  0.12397  0.28727  Biso   1.000  O
  O55      1.0000 0.27427  0.97893  0.21068  Biso   1.000  O
  O56      1.0000 0.27418  0.97893  0.21068  Biso   1.000  O
  O57      1.0000 0.71303  0.12823  0.02186  Biso   1.000  O
  O58      1.0000 0.93573  0.02862  0.92746  Biso   1.000  O
  C269     1.0000 0.33317  0.17460  0.28836  Biso   1.000  C
  C270     1.0000 0.27304  0.95066  0.17016  Biso   1.000  C
  C271     1.0000 0.70488  0.15270  0.06396  Biso   1.000  C
  C272     1.0000 0.04643  0.00640  0.91628  Biso   1.000  C
  H272     1.0000 0.34054  0.18530  0.32031  Biso   1.000  H
  H273     1.0000 0.26282  0.18980  0.27382  Biso   1.000  H
  H274     1.0000 0.40580  0.18361  0.27179  Biso   1.000  H
  H275     1.0000 0.40571  0.18361  0.27179  Biso   1.000  H
  H276     1.0000 0.20304  0.95921  0.15101  Biso   1.000  H
  H277     1.0000 0.26859  0.91671  0.17839  Biso   1.000  H
  H278     1.0000 0.34682  0.95649  0.15300  Biso   1.000  H
  H279     1.0000 0.75731  0.13721  0.08691  Biso   1.000  H
  H280     1.0000 0.62158  0.15191  0.07439  Biso   1.000  H
  H281     1.0000 0.73008  0.18601  0.05991  Biso   1.000  H
  H282     1.0000 0.03220  0.98200  0.89270  Biso   1.000  H
  H283     1.0000 0.08132  0.99141  0.94380  Biso   1.000  H
  H284     1.0000 0.10209  0.03059  0.90471  Biso   1.000  H
  C273     1.0000 0.96990  0.62061  0.59021  Biso   1.000  C
  C274     1.0000 0.89794  0.67030  0.59210  Biso   1.000  C
  O59      1.0000 0.00476  0.65120  0.61255  Biso   1.000  O
  H285     1.0000 0.90597  0.60361  0.60631  Biso   1.000  H
  H286     1.0000 0.93809  0.63342  0.56118  Biso   1.000  H
  H287     1.0000 0.03601  0.59839  0.58400  Biso   1.000  H
  H288     1.0000 0.84278  0.64411  0.58421  Biso   1.000  H
  H289     1.0000 0.85914  0.69191  0.61379  Biso   1.000  H
  H290     1.0000 0.91834  0.68801  0.56431  Biso   1.000  H
  C275     1.0000 0.11438  0.67159  0.60586  Biso   1.000  C
  C276     1.0000 0.21467  0.64411  0.61564  Biso   1.000  C
  C277     1.0000 0.12709  0.71871  0.59062  Biso   1.000  C
  C278     1.0000 0.32843  0.66354  0.60922  Biso   1.000  C
  O60      1.0000 0.20227  0.59717  0.62967  Biso   1.000  O
  C279     1.0000 0.23920  0.73921  0.58541  Biso   1.000  C
  H291     1.0000 0.05731  0.73699  0.58369  Biso   1.000  H
  O61      1.0000 0.42343  0.63377  0.61934  Biso   1.000  O
  C280     1.0000 0.34106  0.71045  0.59412  Biso   1.000  C
  C281     1.0000 0.22896  0.58862  0.67733  Biso   1.000  C
  C282     1.0000 0.25390  0.79281  0.57505  Biso   1.000  C
  H292     1.0000 0.41920  0.72318  0.58970  Biso   1.000  H
  C283     1.0000 0.54101  0.65138  0.61162  Biso   1.000  C
  H293     1.0000 0.25779  0.55531  0.68100  Biso   1.000  H
  H294     1.0000 0.29500  0.61020  0.68728  Biso   1.000  H
  C284     1.0000 0.12646  0.59596  0.70715  Biso   1.000  C
  C285     1.0000 0.36828  0.80404  0.54773  Biso   1.000  C
  C286     1.0000 0.26320  0.81878  0.62175  Biso   1.000  C
  C287     1.0000 0.14519  0.81292  0.54787  Biso   1.000  C
  H295     1.0000 0.54909  0.65971  0.57920  Biso   1.000  H
  H296     1.0000 0.55497  0.67989  0.63050  Biso   1.000  H
  H297     1.0000 0.60014  0.62669  0.61989  Biso   1.000  H
  H298     1.0000 0.60005  0.62669  0.61989  Biso   1.000  H
  C288     1.0000 0.04499  0.59757  0.73464  Biso   1.000  C
  C289     1.0000 0.37981  0.85828  0.54132  Biso   1.000  C
  H299     1.0000 0.43988  0.79170  0.56441  Biso   1.000  H
  H300     1.0000 0.36367  0.78819  0.51740  Biso   1.000  H
  C290     1.0000 0.27584  0.87331  0.61636  Biso   1.000  C
  H301     1.0000 0.33375  0.80640  0.63911  Biso   1.000  H
  H302     1.0000 0.19053  0.81181  0.63969  Biso   1.000  H
  C291     1.0000 0.27575  0.87331  0.61636  Biso   1.000  C
  H303     1.0000 0.33366  0.80640  0.63911  Biso   1.000  H
  H304     1.0000 0.07050  0.80569  0.56462  Biso   1.000  H
  H305     1.0000 0.14004  0.79699  0.51761  Biso   1.000  H
  C292     1.0000 0.15508  0.86737  0.54094  Biso   1.000  C
  C293     1.0000 0.95476  0.59757  0.76538  Biso   1.000  C
  H306     1.0000 0.45419  0.86512  0.52361  Biso   1.000  H
  C294     1.0000 0.38947  0.88358  0.58822  Biso   1.000  C
  C295     1.0000 0.27039  0.87782  0.51438  Biso   1.000  C
  C296     1.0000 0.16460  0.89145  0.58870  Biso   1.000  C
  C297     1.0000 0.28341  0.89871  0.66254  Biso   1.000  C
  C298     1.0000 0.04101  0.88680  0.51665  Biso   1.000  C
  C299     1.0000 0.87329  0.59596  0.79283  Biso   1.000  C
  H307     1.0000 0.46163  0.87191  0.60521  Biso   1.000  H
  H308     1.0000 0.39819  0.91850  0.58359  Biso   1.000  H
  H309     1.0000 0.26559  0.86250  0.48381  Biso   1.000  H
  H310     1.0000 0.27921  0.91281  0.50999  Biso   1.000  H
  H311     1.0000 0.17047  0.92651  0.58479  Biso   1.000  H
  H312     1.0000 0.09083  0.88462  0.60610  Biso   1.000  H
  C300     1.0000 0.27539  0.94862  0.66429  Biso   1.000  C
  C301     1.0000 0.29950  0.87338  0.70348  Biso   1.000  C
  C302     1.0000 0.93043  0.87102  0.53102  Biso   1.000  C
  C303     1.0000 0.04639  0.92097  0.48220  Biso   1.000  C
  C304     1.0000 0.77079  0.58862  0.82268  Biso   1.000  C
  H313     1.0000 0.26459  0.96630  0.63671  Biso   1.000  H
  C305     1.0000 0.28287  0.97277  0.70592  Biso   1.000  C
  C306     1.0000 0.30707  0.89782  0.74507  Biso   1.000  C
  H314     1.0000 0.30524  0.83950  0.70300  Biso   1.000  H
  H315     1.0000 0.92654  0.84869  0.55559  Biso   1.000  H
  C307     1.0000 0.82459  0.88705  0.51047  Biso   1.000  C
  C308     1.0000 0.94013  0.93803  0.46209  Biso   1.000  C
  H316     1.0000 0.12199  0.93259  0.47238  Biso   1.000  H
  H317     1.0000 0.74196  0.55531  0.81901  Biso   1.000  H
  H318     1.0000 0.70475  0.61020  0.81270  Biso   1.000  H
  O62      1.0000 0.79748  0.59717  0.87034  Biso   1.000  O
  C309     1.0000 0.29958  0.94701  0.74671  Biso   1.000  C
  O63      1.0000 0.27416  0.02107  0.71068  Biso   1.000  O
  O64      1.0000 0.31907  0.87603  0.78724  Biso   1.000  O
  C310     1.0000 0.82915  0.92068  0.47537  Biso   1.000  C
  O65      1.0000 0.71291  0.87177  0.52186  Biso   1.000  O
  O66      1.0000 0.93580  0.97138  0.42743  Biso   1.000  O
  C311     1.0000 0.78508  0.64411  0.88438  Biso   1.000  C
  O67      1.0000 0.29960  0.97084  0.78823  Biso   1.000  O
  C312     1.0000 0.27301  0.04934  0.67016  Biso   1.000  C
  C313     1.0000 0.33305  0.82540  0.78837  Biso   1.000  C
  O68      1.0000 0.72483  0.93453  0.45224  Biso   1.000  O
  C314     1.0000 0.70477  0.84730  0.56396  Biso   1.000  C
  C315     1.0000 0.04650  0.99360  0.41628  Biso   1.000  C
  C316     1.0000 0.67141  0.66354  0.89079  Biso   1.000  C
  C317     1.0000 0.88537  0.67159  0.89415  Biso   1.000  C
  C318     1.0000 0.41647  0.97284  0.81053  Biso   1.000  C
  H319     1.0000 0.20302  0.04079  0.65102  Biso   1.000  H
  H320     1.0000 0.26848  0.08329  0.67840  Biso   1.000  H
  H321     1.0000 0.34679  0.04351  0.65301  Biso   1.000  H
  H322     1.0000 0.40569  0.81639  0.77180  Biso   1.000  H
  H323     1.0000 0.26279  0.81020  0.77379  Biso   1.000  H
  H324     1.0000 0.34043  0.81470  0.82031  Biso   1.000  H
  C319     1.0000 0.68305  0.98107  0.46453  Biso   1.000  C
  H325     1.0000 0.75719  0.86279  0.58688  Biso   1.000  H
  H326     1.0000 0.62155  0.84809  0.57439  Biso   1.000  H
  H327     1.0000 0.72997  0.81399  0.55991  Biso   1.000  H
  H328     1.0000 0.10224  0.96941  0.40468  Biso   1.000  H
  H329     1.0000 0.03235  0.01800  0.39271  Biso   1.000  H
  H330     1.0000 0.08139  0.00859  0.44380  Biso   1.000  H
  C320     1.0000 0.65869  0.71045  0.90586  Biso   1.000  C
  O69      1.0000 0.57641  0.63377  0.88064  Biso   1.000  O
  C321     1.0000 0.87266  0.71871  0.90936  Biso   1.000  C
  O70      1.0000 0.99499  0.65120  0.88746  Biso   1.000  O
  H331     1.0000 0.46121  0.94290  0.80480  Biso   1.000  H
  H332     1.0000 0.46346  0.99989  0.79818  Biso   1.000  H
  C322     1.0000 0.39951  0.97914  0.85936  Biso   1.000  C
  C323     1.0000 0.39942  0.97914  0.85936  Biso   1.000  C
  H333     1.0000 0.61056  0.98880  0.44579  Biso   1.000  H
  C324     1.0000 0.65360  0.98472  0.51349  Biso   1.000  C
  H334     1.0000 0.74580  0.00490  0.45729  Biso   1.000  H
  C325     1.0000 0.76055  0.73921  0.91461  Biso   1.000  C
  H335     1.0000 0.58054  0.72318  0.91032  Biso   1.000  H
  C326     1.0000 0.45883  0.65138  0.88836  Biso   1.000  C
  C327     1.0000 0.45874  0.65138  0.88836  Biso   1.000  C
  H336     1.0000 0.94244  0.73699  0.91629  Biso   1.000  H
  C328     1.0000 0.10190  0.67030  0.90791  Biso   1.000  C
  C329     1.0000 0.02985  0.62061  0.90980  Biso   1.000  C
  C330     1.0000 0.38267  0.98297  0.89992  Biso   1.000  C
  C331     1.0000 0.63666  0.98501  0.55374  Biso   1.000  C
  C332     1.0000 0.74585  0.79281  0.92497  Biso   1.000  C
  H337     1.0000 0.45066  0.65971  0.92082  Biso   1.000  H
  H338     1.0000 0.44478  0.67989  0.86948  Biso   1.000  H
  H339     1.0000 0.39970  0.62669  0.88009  Biso   1.000  H
  H340     1.0000 0.15697  0.64411  0.91581  Biso   1.000  H
  H341     1.0000 0.14070  0.69191  0.88619  Biso   1.000  H
  H342     1.0000 0.08141  0.68801  0.93571  Biso   1.000  H
  H343     1.0000 0.96374  0.59839  0.91601  Biso   1.000  H
  H344     1.0000 0.09378  0.60361  0.89371  Biso   1.000  H
  H345     1.0000 0.06166  0.63342  0.93880  Biso   1.000  H
  C333     1.0000 0.36318  0.98501  0.94628  Biso   1.000  C
  C334     1.0000 0.61717  0.98297  0.60010  Biso   1.000  C
  C335     1.0000 0.61708  0.98297  0.60010  Biso   1.000  C
  C336     1.0000 0.63147  0.80404  0.95228  Biso   1.000  C
  C337     1.0000 0.73655  0.81878  0.87823  Biso   1.000  C
  C338     1.0000 0.85456  0.81292  0.95211  Biso   1.000  C
  C339     1.0000 0.34615  0.98472  0.98652  Biso   1.000  C
  C340     1.0000 0.60033  0.97914  0.64062  Biso   1.000  C
  C341     1.0000 0.61994  0.85828  0.95866  Biso   1.000  C
  H346     1.0000 0.63608  0.78819  0.98261  Biso   1.000  H
  H347     1.0000 0.55987  0.79170  0.93560  Biso   1.000  H
  C342     1.0000 0.72400  0.87331  0.88366  Biso   1.000  C
  H348     1.0000 0.66609  0.80640  0.86091  Biso   1.000  H
  H349     1.0000 0.80931  0.81181  0.86029  Biso   1.000  H
  H350     1.0000 0.92925  0.80569  0.93540  Biso   1.000  H
  H351     1.0000 0.85979  0.79699  0.98241  Biso   1.000  H
  C343     1.0000 0.84467  0.86737  0.95907  Biso   1.000  C
  C344     1.0000 0.31688  0.98107  0.03545  Biso   1.000  C
  C345     1.0000 0.58328  0.97284  0.68948  Biso   1.000  C
  H352     1.0000 0.54556  0.86512  0.97640  Biso   1.000  H
  C346     1.0000 0.61028  0.88358  0.91176  Biso   1.000  C
  C347     1.0000 0.72936  0.87782  0.98560  Biso   1.000  C
  C348     1.0000 0.83515  0.89145  0.91131  Biso   1.000  C
  C349     1.0000 0.71642  0.89871  0.83744  Biso   1.000  C
  C350     1.0000 0.71633  0.89871  0.83744  Biso   1.000  C
  C351     1.0000 0.95874  0.88680  0.98333  Biso   1.000  C
  O71      1.0000 0.27510  0.93453  0.04774  Biso   1.000  O
  H353     1.0000 0.38937  0.98880  0.05419  Biso   1.000  H
  H354     1.0000 0.25413  0.00490  0.04269  Biso   1.000  H
  H355     1.0000 0.53863  0.94290  0.69521  Biso   1.000  H
  H356     1.0000 0.53628  0.99989  0.70180  Biso   1.000  H
  O72      1.0000 0.70024  0.97084  0.71178  Biso   1.000  O
  O73      1.0000 0.70015  0.97084  0.71178  Biso   1.000  O
  H357     1.0000 0.53821  0.87191  0.89481  Biso   1.000  H
  H358     1.0000 0.60156  0.91850  0.91639  Biso   1.000  H
  H359     1.0000 0.72054  0.91281  0.98999  Biso   1.000  H
  H360     1.0000 0.73434  0.86250  0.01621  Biso   1.000  H
  H361     1.0000 0.82928  0.92651  0.91519  Biso   1.000  H
  H362     1.0000 0.90892  0.88462  0.89391  Biso   1.000  H
  C352     1.0000 0.72436  0.94862  0.83569  Biso   1.000  C
  C353     1.0000 0.70034  0.87338  0.79650  Biso   1.000  C
  C354     1.0000 0.70025  0.87338  0.79650  Biso   1.000  C
  C355     1.0000 0.95353  0.92097  0.01778  Biso   1.000  C
  C356     1.0000 0.06932  0.87102  0.96896  Biso   1.000  C
  C357     1.0000 0.17087  0.92068  0.02465  Biso   1.000  C
  C358     1.0000 0.17078  0.92068  0.02465  Biso   1.000  C
  C359     1.0000 0.70017  0.94701  0.75327  Biso   1.000  C
  H363     1.0000 0.73516  0.96630  0.86331  Biso   1.000  H
  C360     1.0000 0.71688  0.97277  0.79406  Biso   1.000  C
  C361     1.0000 0.69268  0.89782  0.75495  Biso   1.000  C
  H364     1.0000 0.69451  0.83950  0.79702  Biso   1.000  H
  H365     1.0000 0.87794  0.93259  0.02760  Biso   1.000  H
  C362     1.0000 0.05980  0.93803  0.03793  Biso   1.000  C
  C363     1.0000 0.17515  0.88705  0.98951  Biso   1.000  C
  H366     1.0000 0.07321  0.84869  0.94439  Biso   1.000  H
  O74      1.0000 0.72559  0.02107  0.78933  Biso   1.000  O
  O75      1.0000 0.68077  0.87603  0.71274  Biso   1.000  O
  O76      1.0000 0.06413  0.97138  0.07255  Biso   1.000  O
  O77      1.0000 0.28684  0.87177  0.97815  Biso   1.000  O
  C364     1.0000 0.72674  0.04934  0.82985  Biso   1.000  C
  C365     1.0000 0.66669  0.82540  0.71161  Biso   1.000  C
  C366     1.0000 0.95343  0.99360  0.08373  Biso   1.000  C
  C367     1.0000 0.29498  0.84730  0.93605  Biso   1.000  C
  H367     1.0000 0.73127  0.08329  0.82158  Biso   1.000  H
  H368     1.0000 0.65296  0.04351  0.84701  Biso   1.000  H
  H369     1.0000 0.79673  0.04079  0.84900  Biso   1.000  H
  H370     1.0000 0.59406  0.81639  0.72818  Biso   1.000  H
  H371     1.0000 0.65932  0.81470  0.67970  Biso   1.000  H
  H372     1.0000 0.73696  0.81020  0.72619  Biso   1.000  H
  H373     1.0000 0.89778  0.96941  0.09530  Biso   1.000  H
  H374     1.0000 0.89769  0.96941  0.09530  Biso   1.000  H
  H375     1.0000 0.91854  0.00859  0.05621  Biso   1.000  H
  H376     1.0000 0.96758  0.01800  0.10731  Biso   1.000  H
  H377     1.0000 0.24256  0.86279  0.91310  Biso   1.000  H
  H378     1.0000 0.37829  0.84809  0.92559  Biso   1.000  H
  H379     1.0000 0.26978  0.81399  0.94010  Biso   1.000  H
  Ne1      1.0000 0.99836  0.16145  0.26434  Biso   1.000  Ne
  He1      1.0000 0.01622  0.24971  0.22217  Biso   1.000  He
  He2      1.0000 0.03514  0.05860  0.32869  Biso   1.000  He
  He3      1.0000 0.58967  0.33356  0.19632  Biso   1.000  He
  Ar1      1.0000 0.99941  0.15831  0.24950  Biso   1.000  Ar
  Ne2      1.0000 0.49994  0.66213  0.25000  Biso   1.000  Ne
  He4      1.0000 0.51621  0.74972  0.22219  Biso   1.000  He
  He5      1.0000 0.53416  0.56191  0.32573  Biso   1.000  He
  He6      1.0000 0.49871  0.75623  0.25212  Biso   1.000  He
  Ar2      1.0000 0.49994  0.66213  0.25000  Biso   1.000  Ar
  Ne3      1.0000 0.49990  0.33787  0.75000  Biso   1.000  Ne
  He7      1.0000 0.87866  0.17060  0.79833  Biso   1.000  He
  He8      1.0000 0.53590  0.44416  0.83117  Biso   1.000  He
  He9      1.0000 0.48876  0.24552  0.76901  Biso   1.000  He
  Ar3      1.0000 0.49984  0.34115  0.74996  Biso   1.000  Ar
  Ne4      1.0000 0.99218  0.84163  0.75258  Biso   1.000  Ne
  He10     1.0000 0.37861  0.67060  0.79835  Biso   1.000  He
  He11     1.0000 0.03589  0.94417  0.83117  Biso   1.000  He
  He12     1.0000 0.98879  0.74553  0.76896  Biso   1.000  He
  Ar4      1.0000 0.99976  0.84107  0.74942  Biso   1.000  Ar
