data_image0
_cell_length_a       16.736
_cell_length_b       20.479
_cell_length_c       20.138
_cell_angle_alpha    90
_cell_angle_beta     99.53
_cell_angle_gamma    90

_symmetry_space_group_name_H-M    "P 1"
_symmetry_int_tables_number       1

loop_
  _symmetry_equiv_pos_as_xyz
  'x, y, z'

loop_
  _atom_site_label
  _atom_site_occupancy
  _atom_site_fract_x
  _atom_site_fract_y
  _atom_site_fract_z
  _atom_site_thermal_displace_type
  _atom_site_B_iso_or_equiv
  _atom_site_type_symbol
  C1       1.0000 0.05710  0.96982  0.77608  Biso   1.000  C
  O1       1.0000 0.03380  0.91479  0.74461  Biso   1.000  O
  O2       1.0000 0.03618  0.02349  0.73348  Biso   1.000  O
  H1       1.0000 0.03141  0.97402  0.81571  Biso   1.000  H
  H2       1.0000 0.11529  0.96909  0.79078  Biso   1.000  H
  C2       1.0000 0.96042  0.88959  0.75569  Biso   1.000  C
  C3       1.0000 0.96189  0.05381  0.73701  Biso   1.000  C
  C4       1.0000 0.88712  0.91269  0.72039  Biso   1.000  C
  C5       1.0000 0.96073  0.84071  0.80403  Biso   1.000  C
  C6       1.0000 0.88641  0.02979  0.70720  Biso   1.000  C
  C7       1.0000 0.96692  0.11109  0.77512  Biso   1.000  C
  C8       1.0000 0.88810  0.96660  0.67099  Biso   1.000  C
  C9       1.0000 0.81410  0.88681  0.73328  Biso   1.000  C
  C10      1.0000 0.88771  0.81479  0.81692  Biso   1.000  C
  O3       1.0000 0.03111  0.82421  0.84748  Biso   1.000  O
  C11      1.0000 0.81598  0.06309  0.71541  Biso   1.000  C
  C12      1.0000 0.89640  0.14429  0.78318  Biso   1.000  C
  O4       1.0000 0.03832  0.13160  0.81440  Biso   1.000  O
  C13      1.0000 0.81802  0.96260  0.60539  Biso   1.000  C
  H3       1.0000 0.94018  0.96430  0.65498  Biso   1.000  H
  C14      1.0000 0.81439  0.83788  0.78152  Biso   1.000  C
  H4       1.0000 0.76519  0.90209  0.70972  Biso   1.000  H
  O5       1.0000 0.89549  0.76220  0.86077  Biso   1.000  O
  O6       1.0000 0.89550  0.76220  0.86082  Biso   1.000  O
  C15      1.0000 0.09292  0.80009  0.81102  Biso   1.000  C
  C16      1.0000 0.05898  0.75902  0.83862  Biso   1.000  C
  C17      1.0000 0.82093  0.12032  0.75342  Biso   1.000  C
  H5       1.0000 0.76571  0.04712  0.69552  Biso   1.000  H
  O7       1.0000 0.90320  0.20348  0.81999  Biso   1.000  O
  C18      1.0000 0.09500  0.16309  0.77830  Biso   1.000  C
  C19      1.0000 0.82378  0.89892  0.56470  Biso   1.000  C
  H6       1.0000 0.76538  0.96460  0.61948  Biso   1.000  H
  H7       1.0000 0.82250  0.00000  0.57658  Biso   1.000  H
  C20      1.0000 0.74048  0.81020  0.79889  Biso   1.000  C
  C21      1.0000 0.87747  0.77338  0.92271  Biso   1.000  C
  C22      1.0000 0.17400  0.78798  0.85629  Biso   1.000  C
  H8       1.0000 0.07409  0.75971  0.78852  Biso   1.000  H
  H9       1.0000 0.10060  0.83158  0.77668  Biso   1.000  H
  H10      1.0000 0.07138  0.75302  0.79350  Biso   1.000  H
  H11      1.0000 0.01948  0.72689  0.84672  Biso   1.000  H
  C23      1.0000 0.13681  0.75360  0.89159  Biso   1.000  C
  C24      1.0000 0.74550  0.15460  0.76530  Biso   1.000  C
  C25      1.0000 0.88958  0.20162  0.88298  Biso   1.000  C
  H12      1.0000 0.09681  0.13912  0.73701  Biso   1.000  H
  H13      1.0000 0.07570  0.20680  0.76601  Biso   1.000  H
  C26      1.0000 0.18279  0.16768  0.81918  Biso   1.000  C
  C27      1.0000 0.89690  0.89790  0.52950  Biso   1.000  C
  H14      1.0000 0.77508  0.89438  0.53142  Biso   1.000  H
  H15      1.0000 0.82659  0.86191  0.59501  Biso   1.000  H
  H16      1.0000 0.75340  0.76508  0.81309  Biso   1.000  H
  C28      1.0000 0.67343  0.80609  0.73348  Biso   1.000  C
  C29      1.0000 0.71337  0.84379  0.85750  Biso   1.000  C
  C30      1.0000 0.67337  0.80609  0.73348  Biso   1.000  C
  O8       1.0000 0.79918  0.77098  0.93489  Biso   1.000  O
  H17      1.0000 0.90849  0.74232  0.95302  Biso   1.000  H
  H18      1.0000 0.89843  0.81640  0.93640  Biso   1.000  H
  H19      1.0000 0.19881  0.82929  0.87049  Biso   1.000  H
  H20      1.0000 0.21003  0.76571  0.82991  Biso   1.000  H
  C31      1.0000 0.17004  0.74701  0.91742  Biso   1.000  C
  C32      1.0000 0.16998  0.74701  0.91742  Biso   1.000  C
  H21      1.0000 0.16298  0.84462  0.85800  Biso   1.000  H
  H22      1.0000 0.22050  0.79022  0.83751  Biso   1.000  H
  H23      1.0000 0.11478  0.74789  0.92709  Biso   1.000  H
  H24      1.0000 0.16097  0.71068  0.89018  Biso   1.000  H
  H25      1.0000 0.12461  0.76102  0.93650  Biso   1.000  H
  C33      1.0000 0.19400  0.80580  0.87361  Biso   1.000  C
  C34      1.0000 0.72329  0.12999  0.83257  Biso   1.000  C
  H26      1.0000 0.75952  0.20089  0.77180  Biso   1.000  H
  C35      1.0000 0.67528  0.15089  0.70408  Biso   1.000  C
  O9       1.0000 0.81374  0.21119  0.89249  Biso   1.000  O
  H27      1.0000 0.90699  0.15929  0.90171  Biso   1.000  H
  H28      1.0000 0.92348  0.23429  0.90861  Biso   1.000  H
  O10      1.0000 0.81368  0.21119  0.89249  Biso   1.000  O
  H29      1.0000 0.22283  0.18131  0.79219  Biso   1.000  H
  H30      1.0000 0.20021  0.12828  0.84421  Biso   1.000  H
  C36      1.0000 0.15842  0.22052  0.86148  Biso   1.000  C
  H31      1.0000 0.22277  0.18131  0.79219  Biso   1.000  H
  C37      1.0000 0.97071  0.87182  0.56052  Biso   1.000  C
  C38      1.0000 0.88988  0.92500  0.46520  Biso   1.000  C
  C39      1.0000 0.75100  0.82489  0.92160  Biso   1.000  C
  C40      1.0000 0.66191  0.89780  0.84959  Biso   1.000  C
  H32      1.0000 0.69703  0.78871  0.69627  Biso   1.000  H
  H33      1.0000 0.65292  0.84950  0.72109  Biso   1.000  H
  C41      1.0000 0.60611  0.76351  0.74647  Biso   1.000  C
  H34      1.0000 0.69698  0.78871  0.69632  Biso   1.000  H
  C42      1.0000 0.60612  0.76351  0.74652  Biso   1.000  C
  C43      1.0000 0.22700  0.77538  0.97598  Biso   1.000  C
  H35      1.0000 0.18422  0.70248  0.90971  Biso   1.000  H
  C44      1.0000 0.25600  0.82221  0.93439  Biso   1.000  C
  C45      1.0000 0.76129  0.15841  0.89259  Biso   1.000  C
  C46      1.0000 0.67001  0.07788  0.83419  Biso   1.000  C
  H36      1.0000 0.65491  0.10660  0.69869  Biso   1.000  H
  H37      1.0000 0.69512  0.16329  0.66329  Biso   1.000  H
  C47      1.0000 0.60771  0.19669  0.71581  Biso   1.000  C
  H38      1.0000 0.16109  0.26329  0.84129  Biso   1.000  H
  H39      1.0000 0.10511  0.21339  0.87311  Biso   1.000  H
  C48      1.0000 0.22869  0.20919  0.92331  Biso   1.000  C
  C49      1.0000 0.03753  0.87289  0.52729  Biso   1.000  C
  H40      1.0000 0.97542  0.85370  0.60332  Biso   1.000  H
  C50      1.0000 0.95672  0.92612  0.43207  Biso   1.000  C
  C51      1.0000 0.95673  0.92612  0.43212  Biso   1.000  C
  H41      1.0000 0.84073  0.94238  0.44461  Biso   1.000  H
  C52      1.0000 0.73720  0.86010  0.97799  Biso   1.000  C
  C53      1.0000 0.64799  0.93291  0.90599  Biso   1.000  C
  H42      1.0000 0.63679  0.91030  0.80690  Biso   1.000  H
  H43      1.0000 0.62793  0.72308  0.76722  Biso   1.000  H
  H44      1.0000 0.57600  0.78500  0.77739  Biso   1.000  H
  C54      1.0000 0.54807  0.74808  0.67890  Biso   1.000  C
  O11      1.0000 0.21001  0.84408  0.98489  Biso   1.000  O
  H45      1.0000 0.28269  0.77050  0.96848  Biso   1.000  H
  H46      1.0000 0.28803  0.78402  0.95000  Biso   1.000  H
  H47      1.0000 0.22203  0.75170  0.01702  Biso   1.000  H
  H48      1.0000 0.29203  0.85639  0.92391  Biso   1.000  H
  C55      1.0000 0.74602  0.13458  0.95418  Biso   1.000  C
  C56      1.0000 0.65468  0.05410  0.89582  Biso   1.000  C
  H49      1.0000 0.64474  0.05899  0.79431  Biso   1.000  H
  H50      1.0000 0.64468  0.05899  0.79431  Biso   1.000  H
  H51      1.0000 0.62809  0.24108  0.71762  Biso   1.000  H
  H52      1.0000 0.59301  0.18692  0.75931  Biso   1.000  H
  C57      1.0000 0.53220  0.19332  0.66309  Biso   1.000  C
  H53      1.0000 0.23072  0.24581  0.95418  Biso   1.000  H
  H54      1.0000 0.28032  0.20709  0.90740  Biso   1.000  H
  O12      1.0000 0.21619  0.14888  0.95891  Biso   1.000  O
  H55      1.0000 0.08670  0.85561  0.54798  Biso   1.000  H
  C58      1.0000 0.03053  0.90009  0.46309  Biso   1.000  C
  C59      1.0000 0.03047  0.90009  0.46309  Biso   1.000  C
  H56      1.0000 0.95199  0.94419  0.38917  Biso   1.000  H
  H57      1.0000 0.95200  0.94419  0.38922  Biso   1.000  H
  C60      1.0000 0.68567  0.91411  0.97009  Biso   1.000  C
  O13      1.0000 0.78383  0.85112  0.04108  Biso   1.000  O
  C61      1.0000 0.60039  0.99512  0.90070  Biso   1.000  C
  C62      1.0000 0.47862  0.78471  0.65599  Biso   1.000  C
  C63      1.0000 0.56530  0.69261  0.64360  Biso   1.000  C
  C64      1.0000 0.25400  0.86542  0.04582  Biso   1.000  C
  C65      1.0000 0.69268  0.08252  0.95579  Biso   1.000  C
  O14      1.0000 0.79000  0.15592  0.01510  Biso   1.000  O
  C66      1.0000 0.47870  0.14288  0.67140  Biso   1.000  C
  C67      1.0000 0.51132  0.23922  0.61198  Biso   1.000  C
  C68      1.0000 0.26282  0.13990  0.02200  Biso   1.000  C
  H58      1.0000 0.07513  0.90078  0.44099  Biso   1.000  H
  O15      1.0000 0.67231  0.94961  0.02839  Biso   1.000  O
  C69      1.0000 0.77132  0.79081  0.07668  Biso   1.000  C
  H59      1.0000 0.57931  0.99961  0.94310  Biso   1.000  H
  C70      1.0000 0.52372  0.99761  0.84159  Biso   1.000  C
  H60      1.0000 0.46723  0.82172  0.67950  Biso   1.000  H
  C71      1.0000 0.42629  0.76571  0.59788  Biso   1.000  C
  H61      1.0000 0.61159  0.66829  0.65881  Biso   1.000  H
  C72      1.0000 0.51297  0.67371  0.58550  Biso   1.000  C
  C73      1.0000 0.23872  0.84159  0.10740  Biso   1.000  C
  C74      1.0000 0.30727  0.91748  0.04421  Biso   1.000  C
  O16      1.0000 0.67739  0.06031  0.01848  Biso   1.000  O
  C75      1.0000 0.77302  0.22462  0.02401  Biso   1.000  C
  C76      1.0000 0.74402  0.17779  0.06561  Biso   1.000  C
  H62      1.0000 0.49260  0.11221  0.70549  Biso   1.000  H
  C77      1.0000 0.40421  0.13839  0.62860  Biso   1.000  C
  H63      1.0000 0.54691  0.27291  0.60649  Biso   1.000  H
  C78      1.0000 0.43677  0.23468  0.56918  Biso   1.000  C
  C79      1.0000 0.24901  0.17511  0.07839  Biso   1.000  C
  C80      1.0000 0.31428  0.08589  0.02991  Biso   1.000  C
  C81      1.0000 0.71243  0.00171  0.04471  Biso   1.000  C
  C82      1.0000 0.84160  0.77948  0.13852  Biso   1.000  C
  H64      1.0000 0.76929  0.75419  0.04582  Biso   1.000  H
  H65      1.0000 0.71970  0.79291  0.09259  Biso   1.000  H
  H66      1.0000 0.54029  0.98530  0.79939  Biso   1.000  H
  C83      1.0000 0.45797  0.95268  0.85559  Biso   1.000  C
  H67      1.0000 0.50303  0.04190  0.83701  Biso   1.000  H
  H68      1.0000 0.38000  0.79008  0.58268  Biso   1.000  H
  C84      1.0000 0.44348  0.71019  0.56269  Biso   1.000  C
  H69      1.0000 0.52438  0.63660  0.56208  Biso   1.000  H
  O17      1.0000 0.18628  0.78881  0.10750  Biso   1.000  O
  C85      1.0000 0.27673  0.87001  0.16742  Biso   1.000  C
  O18      1.0000 0.32263  0.93969  0.98152  Biso   1.000  O
  C86      1.0000 0.34527  0.94590  0.10418  Biso   1.000  C
  H70      1.0000 0.77799  0.24830  0.98298  Biso   1.000  H
  C87      1.0000 0.82997  0.25299  0.08257  Biso   1.000  C
  H71      1.0000 0.71733  0.22950  0.03152  Biso   1.000  H
  C88      1.0000 0.82998  0.25299  0.08262  Biso   1.000  C
  H72      1.0000 0.71199  0.21598  0.05000  Biso   1.000  H
  C89      1.0000 0.80602  0.19420  0.12638  Biso   1.000  C
  H73      1.0000 0.70798  0.14361  0.07608  Biso   1.000  H
  H74      1.0000 0.36863  0.10469  0.63419  Biso   1.000  H
  C90      1.0000 0.38329  0.18429  0.57759  Biso   1.000  C
  H75      1.0000 0.36857  0.10469  0.63419  Biso   1.000  H
  H76      1.0000 0.42289  0.26530  0.53519  Biso   1.000  H
  O19      1.0000 0.20084  0.22902  0.06510  Biso   1.000  O
  C91      1.0000 0.28658  0.15621  0.14249  Biso   1.000  C
  O20      1.0000 0.20078  0.22902  0.06510  Biso   1.000  O
  O21      1.0000 0.32770  0.05039  0.97160  Biso   1.000  O
  C92      1.0000 0.35203  0.06709  0.09400  Biso   1.000  C
  H77      1.0000 0.76481  0.99741  0.03051  Biso   1.000  H
  H78      1.0000 0.72201  0.00498  0.09340  Biso   1.000  H
  C93      1.0000 0.81722  0.83232  0.18081  Biso   1.000  C
  H79      1.0000 0.83893  0.73671  0.15871  Biso   1.000  H
  H80      1.0000 0.89491  0.78661  0.12688  Biso   1.000  H
  H81      1.0000 0.47859  0.90830  0.85891  Biso   1.000  H
  H82      1.0000 0.44320  0.96411  0.89869  Biso   1.000  H
  C94      1.0000 0.38139  0.95542  0.80080  Biso   1.000  C
  H83      1.0000 0.40871  0.69749  0.52402  Biso   1.000  H
  C95      1.0000 0.11044  0.79838  0.11701  Biso   1.000  C
  C96      1.0000 0.11038  0.79838  0.11701  Biso   1.000  C
  C97      1.0000 0.25452  0.84540  0.23469  Biso   1.000  C
  C98      1.0000 0.33000  0.92212  0.16581  Biso   1.000  C
  C99      1.0000 0.28759  0.99829  0.95528  Biso   1.000  C
  C100     1.0000 0.39963  0.00488  0.09929  Biso   1.000  C
  C101     1.0000 0.39957  0.00488  0.09929  Biso   1.000  C
  C102     1.0000 0.82602  0.21202  0.14370  Biso   1.000  C
  H84      1.0000 0.88523  0.25211  0.07291  Biso   1.000  H
  H85      1.0000 0.81579  0.29752  0.09028  Biso   1.000  H
  H86      1.0000 0.83899  0.28932  0.10981  Biso   1.000  H
  H87      1.0000 0.87541  0.23898  0.06349  Biso   1.000  H
  H88      1.0000 0.78999  0.23429  0.17009  Biso   1.000  H
  C103     1.0000 0.86320  0.24640  0.10840  Biso   1.000  C
  H89      1.0000 0.83703  0.15538  0.14199  Biso   1.000  H
  H90      1.0000 0.77951  0.20978  0.16248  Biso   1.000  H
  H91      1.0000 0.33368  0.18131  0.54899  Biso   1.000  H
  C104     1.0000 0.12248  0.22662  0.07729  Biso   1.000  C
  C105     1.0000 0.25948  0.18980  0.20110  Biso   1.000  C
  C106     1.0000 0.33811  0.10220  0.15040  Biso   1.000  C
  C107     1.0000 0.90501  0.83691  0.22170  Biso   1.000  C
  H92      1.0000 0.77718  0.81869  0.20780  Biso   1.000  H
  H93      1.0000 0.79981  0.87172  0.15579  Biso   1.000  H
  C108     1.0000 0.35058  0.89609  0.77361  Biso   1.000  C
  C109     1.0000 0.34301  0.01382  0.77880  Biso   1.000  C
  O22      1.0000 0.09681  0.79652  0.18001  Biso   1.000  O
  H94      1.0000 0.09302  0.84071  0.09828  Biso   1.000  H
  H95      1.0000 0.07647  0.76571  0.09139  Biso   1.000  H
  H96      1.0000 0.24050  0.79911  0.22819  Biso   1.000  H
  C110     1.0000 0.32473  0.84911  0.29592  Biso   1.000  C
  C111     1.0000 0.17910  0.87968  0.24662  Biso   1.000  C
  C112     1.0000 0.32467  0.84911  0.29592  Biso   1.000  C
  H97      1.0000 0.35528  0.94101  0.20569  Biso   1.000  H
  H98      1.0000 0.27801  0.99502  0.90659  Biso   1.000  H
  H99      1.0000 0.23520  0.00259  0.96948  Biso   1.000  H
  H100     1.0000 0.42070  0.00039  0.05689  Biso   1.000  H
  C113     1.0000 0.47629  0.00239  0.15840  Biso   1.000  C
  C114     1.0000 0.90711  0.19991  0.18902  Biso   1.000  C
  H101     1.0000 0.80120  0.17071  0.12950  Biso   1.000  H
  C115     1.0000 0.94098  0.24098  0.16138  Biso   1.000  C
  H102     1.0000 0.09152  0.25768  0.04697  Biso   1.000  H
  H103     1.0000 0.10159  0.18360  0.06359  Biso   1.000  H
  O23      1.0000 0.10452  0.23780  0.13922  Biso   1.000  O
  H104     1.0000 0.09153  0.25768  0.04703  Biso   1.000  H
  H105     1.0000 0.24661  0.23492  0.18690  Biso   1.000  H
  C116     1.0000 0.32658  0.19391  0.26651  Biso   1.000  C
  C117     1.0000 0.18563  0.16212  0.21853  Biso   1.000  C
  H106     1.0000 0.36323  0.08970  0.19310  Biso   1.000  H
  O24      1.0000 0.96169  0.86840  0.18559  Biso   1.000  O
  H107     1.0000 0.90320  0.86088  0.26299  Biso   1.000  H
  H108     1.0000 0.92431  0.79320  0.23398  Biso   1.000  H
  C118     1.0000 0.28133  0.89531  0.72442  Biso   1.000  C
  H109     1.0000 0.37620  0.85722  0.78821  Biso   1.000  H
  H110     1.0000 0.36348  0.05332  0.79698  Biso   1.000  H
  C119     1.0000 0.27370  0.01299  0.72960  Biso   1.000  C
  C120     1.0000 0.10361  0.85571  0.21681  Biso   1.000  C
  C121     1.0000 0.18397  0.93691  0.28459  Biso   1.000  C
  H111     1.0000 0.34511  0.89340  0.30130  Biso   1.000  H
  H112     1.0000 0.30490  0.83671  0.33670  Biso   1.000  H
  C122     1.0000 0.39231  0.80331  0.28418  Biso   1.000  C
  H113     1.0000 0.49699  0.95810  0.16299  Biso   1.000  H
  H114     1.0000 0.45972  0.01470  0.20060  Biso   1.000  H
  C123     1.0000 0.54198  0.04732  0.14441  Biso   1.000  C
  O25      1.0000 0.96891  0.17579  0.15251  Biso   1.000  O
  H115     1.0000 0.92592  0.24029  0.21148  Biso   1.000  H
  H116     1.0000 0.89942  0.16842  0.22331  Biso   1.000  H
  H117     1.0000 0.92863  0.24698  0.20649  Biso   1.000  H
  H118     1.0000 0.98054  0.27311  0.15332  Biso   1.000  H
  C124     1.0000 0.11230  0.18521  0.18308  Biso   1.000  C
  C125     1.0000 0.18591  0.11319  0.26671  Biso   1.000  C
  H119     1.0000 0.30299  0.21129  0.30372  Biso   1.000  H
  H120     1.0000 0.34710  0.15050  0.27890  Biso   1.000  H
  C126     1.0000 0.39391  0.23649  0.25352  Biso   1.000  C
  C127     1.0000 0.03310  0.88891  0.22492  Biso   1.000  C
  C128     1.0000 0.24289  0.95371  0.70241  Biso   1.000  C
  H121     1.0000 0.26079  0.85580  0.70619  Biso   1.000  H
  H122     1.0000 0.24808  0.05191  0.71500  Biso   1.000  H
  C129     1.0000 0.11361  0.97021  0.29279  Biso   1.000  C
  H123     1.0000 0.23430  0.95288  0.30448  Biso   1.000  H
  H124     1.0000 0.37193  0.75892  0.28237  Biso   1.000  H
  H125     1.0000 0.40700  0.81308  0.24068  Biso   1.000  H
  C130     1.0000 0.46782  0.80668  0.33690  Biso   1.000  C
  H126     1.0000 0.37188  0.75892  0.28242  Biso   1.000  H
  H127     1.0000 0.52142  0.09170  0.14108  Biso   1.000  H
  H128     1.0000 0.55682  0.03589  0.10130  Biso   1.000  H
  C131     1.0000 0.61862  0.04458  0.19919  Biso   1.000  C
  C132     1.0000 0.03930  0.15929  0.19602  Biso   1.000  C
  C133     1.0000 0.11289  0.08731  0.27960  Biso   1.000  C
  H129     1.0000 0.23482  0.09791  0.29028  Biso   1.000  H
  H130     1.0000 0.37209  0.27692  0.23277  Biso   1.000  H
  H131     1.0000 0.42402  0.21500  0.22260  Biso   1.000  H
  C134     1.0000 0.45188  0.25192  0.32109  Biso   1.000  C
  H132     1.0000 0.37210  0.27692  0.23283  Biso   1.000  H
  C135     1.0000 0.03812  0.94619  0.26299  Biso   1.000  C
  H133     1.0000 0.19667  0.95312  0.66958  Biso   1.000  H
  C136     1.0000 0.11192  0.03340  0.32900  Biso   1.000  C
  C137     1.0000 0.52131  0.85712  0.32860  Biso   1.000  C
  C138     1.0000 0.48870  0.76078  0.38801  Biso   1.000  C
  C139     1.0000 0.65700  0.98618  0.22119  Biso   1.000  C
  C140     1.0000 0.64943  0.10391  0.22638  Biso   1.000  C
  C141     1.0000 0.64937  0.10391  0.22638  Biso   1.000  C
  C142     1.0000 0.03960  0.11041  0.24431  Biso   1.000  C
  C143     1.0000 0.52140  0.21529  0.34400  Biso   1.000  C
  C144     1.0000 0.43471  0.30739  0.35639  Biso   1.000  C
  O26      1.0000 0.96377  0.97651  0.26651  Biso   1.000  O
  C145     1.0000 0.18199  0.03740  0.39461  Biso   1.000  C
  H134     1.0000 0.05978  0.03570  0.34501  Biso   1.000  H
  H135     1.0000 0.50741  0.88779  0.29451  Biso   1.000  H
  C146     1.0000 0.59581  0.86161  0.37139  Biso   1.000  C
  C147     1.0000 0.56319  0.76532  0.43081  Biso   1.000  C
  H136     1.0000 0.45310  0.72709  0.39350  Biso   1.000  H
  H137     1.0000 0.63653  0.94668  0.20302  Biso   1.000  H
  C148     1.0000 0.72632  0.98701  0.27039  Biso   1.000  C
  C149     1.0000 0.71869  0.10469  0.27557  Biso   1.000  C
  H138     1.0000 0.62382  0.14278  0.21178  Biso   1.000  H
  C150     1.0000 0.71870  0.10469  0.27562  Biso   1.000  C
  O27      1.0000 0.96622  0.08521  0.25538  Biso   1.000  O
  H139     1.0000 0.53278  0.17828  0.32049  Biso   1.000  H
  C151     1.0000 0.57372  0.23429  0.40211  Biso   1.000  C
  C152     1.0000 0.48698  0.32629  0.41450  Biso   1.000  C
  H140     1.0000 0.38842  0.33171  0.34118  Biso   1.000  H
  C153     1.0000 0.94292  0.03018  0.22391  Biso   1.000  C
  H141     1.0000 0.17751  0.00000  0.42341  Biso   1.000  H
  H142     1.0000 0.23463  0.03540  0.38051  Biso   1.000  H
  C154     1.0000 0.17617  0.10108  0.43529  Biso   1.000  C
  H143     1.0000 0.63138  0.89531  0.36581  Biso   1.000  H
  C155     1.0000 0.61672  0.81571  0.42240  Biso   1.000  C
  H144     1.0000 0.57713  0.73470  0.46480  Biso   1.000  H
  H145     1.0000 0.75193  0.94809  0.28499  Biso   1.000  H
  H146     1.0000 0.75187  0.94809  0.28499  Biso   1.000  H
  C156     1.0000 0.75713  0.04629  0.29758  Biso   1.000  C
  C157     1.0000 0.75707  0.04629  0.29758  Biso   1.000  C
  H147     1.0000 0.73923  0.14420  0.29380  Biso   1.000  H
  H148     1.0000 0.62001  0.20992  0.41732  Biso   1.000  H
  C158     1.0000 0.55653  0.28981  0.43731  Biso   1.000  C
  C159     1.0000 0.55647  0.28981  0.43731  Biso   1.000  C
  H149     1.0000 0.47557  0.36340  0.43791  Biso   1.000  H
  H150     1.0000 0.96860  0.02598  0.18429  Biso   1.000  H
  H151     1.0000 0.88472  0.03091  0.20921  Biso   1.000  H
  H152     1.0000 0.22493  0.10562  0.46857  Biso   1.000  H
  H153     1.0000 0.17342  0.13809  0.40498  Biso   1.000  H
  C160     1.0000 0.10312  0.10210  0.47049  Biso   1.000  C
  H154     1.0000 0.22488  0.10562  0.46862  Biso   1.000  H
  H155     1.0000 0.66634  0.81869  0.45100  Biso   1.000  H
  H156     1.0000 0.66628  0.81869  0.45100  Biso   1.000  H
  H157     1.0000 0.80328  0.04688  0.33041  Biso   1.000  H
  H158     1.0000 0.59131  0.30251  0.47598  Biso   1.000  H
  C161     1.0000 0.02931  0.12818  0.43952  Biso   1.000  C
  C162     1.0000 0.11007  0.07500  0.53479  Biso   1.000  C
  H159     1.0000 0.15929  0.05762  0.55538  Biso   1.000  H
  C163     1.0000 0.04330  0.07388  0.56792  Biso   1.000  C
  C164     1.0000 0.96249  0.12711  0.47270  Biso   1.000  C
  H160     1.0000 0.02460  0.14630  0.39667  Biso   1.000  H
  H161     1.0000 0.02461  0.14630  0.39672  Biso   1.000  H
  C165     1.0000 0.96948  0.09991  0.53690  Biso   1.000  C
  H162     1.0000 0.04802  0.05581  0.61082  Biso   1.000  H
  H163     1.0000 0.91331  0.14439  0.45201  Biso   1.000  H
  H164     1.0000 0.92489  0.09922  0.55901  Biso   1.000  H
  C166     1.0000 0.77132  0.70921  0.57668  Biso   1.000  C
  O28      1.0000 0.78382  0.64891  0.54109  Biso   1.000  O
  C167     1.0000 0.84159  0.72049  0.63852  Biso   1.000  C
  H165     1.0000 0.76929  0.74579  0.54582  Biso   1.000  H
  H166     1.0000 0.71969  0.70711  0.59260  Biso   1.000  H
  C168     1.0000 0.73719  0.63992  0.47799  Biso   1.000  C
  C169     1.0000 0.81722  0.66771  0.68081  Biso   1.000  C
  H167     1.0000 0.83892  0.76332  0.65871  Biso   1.000  H
  H168     1.0000 0.89490  0.71341  0.62689  Biso   1.000  H
  C170     1.0000 0.68573  0.58592  0.47009  Biso   1.000  C
  C171     1.0000 0.75100  0.67508  0.42160  Biso   1.000  C
  C172     1.0000 0.90501  0.66312  0.72170  Biso   1.000  C
  H169     1.0000 0.77718  0.68128  0.70780  Biso   1.000  H
  H170     1.0000 0.79980  0.62830  0.65579  Biso   1.000  H
  C173     1.0000 0.64798  0.56712  0.40599  Biso   1.000  C
  O29      1.0000 0.67231  0.55042  0.52840  Biso   1.000  O
  C174     1.0000 0.71343  0.65618  0.35750  Biso   1.000  C
  O30      1.0000 0.79917  0.72899  0.43489  Biso   1.000  O
  O31      1.0000 0.96169  0.63162  0.68560  Biso   1.000  O
  H171     1.0000 0.90320  0.63909  0.76299  Biso   1.000  H
  H172     1.0000 0.92431  0.70682  0.73399  Biso   1.000  H
  C175     1.0000 0.60038  0.50491  0.40070  Biso   1.000  C
  C176     1.0000 0.66190  0.60218  0.34960  Biso   1.000  C
  C177     1.0000 0.71242  0.49832  0.54471  Biso   1.000  C
  C178     1.0000 0.74047  0.68978  0.29889  Biso   1.000  C
  C179     1.0000 0.87753  0.72660  0.42271  Biso   1.000  C
  C180     1.0000 0.03310  0.61111  0.72492  Biso   1.000  C
  C181     1.0000 0.65468  0.44592  0.39582  Biso   1.000  C
  H173     1.0000 0.57931  0.50042  0.44310  Biso   1.000  H
  C182     1.0000 0.52372  0.50242  0.34159  Biso   1.000  C
  H174     1.0000 0.63679  0.58968  0.30690  Biso   1.000  H
  O32      1.0000 0.67738  0.43972  0.51848  Biso   1.000  O
  H175     1.0000 0.72201  0.49499  0.59340  Biso   1.000  H
  H176     1.0000 0.76481  0.50261  0.53051  Biso   1.000  H
  C183     1.0000 0.81439  0.66209  0.28152  Biso   1.000  C
  H177     1.0000 0.75340  0.73490  0.31309  Biso   1.000  H
  C184     1.0000 0.67343  0.69388  0.23348  Biso   1.000  C
  O33      1.0000 0.89550  0.73778  0.36082  Biso   1.000  O
  H178     1.0000 0.90849  0.75770  0.45302  Biso   1.000  H
  H179     1.0000 0.89842  0.68358  0.43640  Biso   1.000  H
  C185     1.0000 0.03812  0.55379  0.76299  Biso   1.000  C
  C186     1.0000 0.10361  0.64432  0.71681  Biso   1.000  C
  C187     1.0000 0.67001  0.42209  0.33419  Biso   1.000  C
  C188     1.0000 0.69268  0.41750  0.45579  Biso   1.000  C
  H180     1.0000 0.54029  0.51472  0.29939  Biso   1.000  H
  H181     1.0000 0.50303  0.45808  0.33701  Biso   1.000  H
  C189     1.0000 0.45797  0.54729  0.35559  Biso   1.000  C
  C190     1.0000 0.81410  0.61321  0.23328  Biso   1.000  C
  C191     1.0000 0.88771  0.68519  0.31692  Biso   1.000  C
  H182     1.0000 0.69703  0.71131  0.19632  Biso   1.000  H
  H183     1.0000 0.65291  0.65052  0.22110  Biso   1.000  H
  C192     1.0000 0.60612  0.73651  0.24652  Biso   1.000  C
  O34      1.0000 0.96383  0.52351  0.76651  Biso   1.000  O
  C193     1.0000 0.11360  0.52981  0.79280  Biso   1.000  C
  C194     1.0000 0.17910  0.62029  0.74662  Biso   1.000  C
  O35      1.0000 0.09681  0.70350  0.68001  Biso   1.000  O
  C195     1.0000 0.72328  0.36999  0.33258  Biso   1.000  C
  H184     1.0000 0.64467  0.44099  0.29431  Biso   1.000  H
  C196     1.0000 0.74601  0.36540  0.45418  Biso   1.000  C
  H185     1.0000 0.47859  0.59168  0.35891  Biso   1.000  H
  H186     1.0000 0.44319  0.53591  0.39869  Biso   1.000  H
  C197     1.0000 0.38139  0.54461  0.30080  Biso   1.000  C
  C198     1.0000 0.88712  0.58728  0.22039  Biso   1.000  C
  H187     1.0000 0.76519  0.59788  0.20972  Biso   1.000  H
  C199     1.0000 0.96071  0.65931  0.30398  Biso   1.000  C
  H188     1.0000 0.62792  0.77689  0.26722  Biso   1.000  H
  H189     1.0000 0.57600  0.71498  0.27739  Biso   1.000  H
  C200     1.0000 0.54813  0.75189  0.17890  Biso   1.000  C
  C201     1.0000 0.94291  0.46980  0.72391  Biso   1.000  C
  C202     1.0000 0.11191  0.46662  0.82900  Biso   1.000  C
  C203     1.0000 0.18397  0.56311  0.78459  Biso   1.000  C
  C204     1.0000 0.25451  0.65462  0.73469  Biso   1.000  C
  C205     1.0000 0.11037  0.70160  0.61702  Biso   1.000  C
  C206     1.0000 0.74549  0.34538  0.26531  Biso   1.000  C
  C207     1.0000 0.76129  0.34162  0.39260  Biso   1.000  C
  O36      1.0000 0.79000  0.34411  0.51510  Biso   1.000  O
  C208     1.0000 0.34301  0.48621  0.27880  Biso   1.000  C
  C209     1.0000 0.35058  0.60389  0.27361  Biso   1.000  C
  C210     1.0000 0.88809  0.53338  0.17100  Biso   1.000  C
  C211     1.0000 0.96041  0.61038  0.25569  Biso   1.000  C
  O37      1.0000 0.03110  0.67581  0.34748  Biso   1.000  O
  C212     1.0000 0.47861  0.71532  0.15599  Biso   1.000  C
  C213     1.0000 0.56530  0.80741  0.14360  Biso   1.000  C
  O38      1.0000 0.96621  0.41482  0.75538  Biso   1.000  O
  H190     1.0000 0.96860  0.47400  0.68429  Biso   1.000  H
  H191     1.0000 0.88472  0.46911  0.70921  Biso   1.000  H
  C214     1.0000 0.11289  0.41272  0.77960  Biso   1.000  C
  H192     1.0000 0.05977  0.46428  0.84501  Biso   1.000  H
  C215     1.0000 0.18199  0.46262  0.89461  Biso   1.000  C
  H193     1.0000 0.23430  0.54710  0.80448  Biso   1.000  H
  C216     1.0000 0.27672  0.63001  0.66742  Biso   1.000  C
  H194     1.0000 0.24049  0.70091  0.72819  Biso   1.000  H
  C217     1.0000 0.32473  0.65091  0.79592  Biso   1.000  C
  O39      1.0000 0.18627  0.71122  0.60750  Biso   1.000  O
  H195     1.0000 0.09302  0.65931  0.59829  Biso   1.000  H
  H196     1.0000 0.07653  0.73431  0.59139  Biso   1.000  H
  C218     1.0000 0.67528  0.34909  0.20408  Biso   1.000  C
  C219     1.0000 0.82092  0.37971  0.25342  Biso   1.000  C
  H197     1.0000 0.75951  0.29909  0.27180  Biso   1.000  H
  O40      1.0000 0.81367  0.28878  0.39250  Biso   1.000  O
  C220     1.0000 0.77301  0.27540  0.52402  Biso   1.000  C
  C221     1.0000 0.74401  0.32218  0.56561  Biso   1.000  C
  H198     1.0000 0.36348  0.44670  0.29698  Biso   1.000  H
  C222     1.0000 0.27369  0.48699  0.22961  Biso   1.000  C
  C223     1.0000 0.28132  0.60472  0.22442  Biso   1.000  C
  H199     1.0000 0.37619  0.64280  0.28822  Biso   1.000  H
  C224     1.0000 0.88640  0.47019  0.20720  Biso   1.000  C
  H200     1.0000 0.94017  0.53572  0.15498  Biso   1.000  H
  C225     1.0000 0.81802  0.53738  0.10539  Biso   1.000  C
  O41      1.0000 0.03379  0.58518  0.24461  Biso   1.000  O
  C226     1.0000 0.09290  0.69989  0.31098  Biso   1.000  C
  C227     1.0000 0.05897  0.74100  0.33862  Biso   1.000  C
  H201     1.0000 0.46723  0.67830  0.17951  Biso   1.000  H
  C228     1.0000 0.42629  0.73431  0.09788  Biso   1.000  C
  C229     1.0000 0.51303  0.82631  0.08550  Biso   1.000  C
  H202     1.0000 0.61159  0.83168  0.15881  Biso   1.000  H
  C230     1.0000 0.03959  0.38962  0.74431  Biso   1.000  C
  C231     1.0000 0.18591  0.38679  0.76671  Biso   1.000  C
  H203     1.0000 0.17751  0.50002  0.92341  Biso   1.000  H
  H204     1.0000 0.23463  0.46462  0.88051  Biso   1.000  H
  C232     1.0000 0.17617  0.39890  0.93529  Biso   1.000  C
  C233     1.0000 0.33000  0.57791  0.66581  Biso   1.000  C
  C234     1.0000 0.23872  0.65838  0.60740  Biso   1.000  C
  H205     1.0000 0.34510  0.60662  0.80131  Biso   1.000  H
  H206     1.0000 0.30489  0.66331  0.83670  Biso   1.000  H
  C235     1.0000 0.39230  0.69671  0.78419  Biso   1.000  C
  C236     1.0000 0.60770  0.30329  0.21581  Biso   1.000  C
  H207     1.0000 0.65490  0.39338  0.19869  Biso   1.000  H
  H208     1.0000 0.69511  0.33669  0.16329  Biso   1.000  H
  C237     1.0000 0.89640  0.35568  0.28318  Biso   1.000  C
  C238     1.0000 0.81598  0.43689  0.21541  Biso   1.000  C
  C239     1.0000 0.88957  0.29840  0.38298  Biso   1.000  C
  C240     1.0000 0.82997  0.24698  0.58258  Biso   1.000  C
  H209     1.0000 0.71732  0.27052  0.53152  Biso   1.000  H
  H210     1.0000 0.77798  0.25172  0.48298  Biso   1.000  H
  H211     1.0000 0.71198  0.28400  0.55000  Biso   1.000  H
  C241     1.0000 0.80601  0.30578  0.62638  Biso   1.000  C
  H212     1.0000 0.70798  0.35641  0.57608  Biso   1.000  H
  H213     1.0000 0.24808  0.44812  0.21500  Biso   1.000  H
  C242     1.0000 0.24288  0.54632  0.20242  Biso   1.000  C
  H214     1.0000 0.26078  0.64422  0.20619  Biso   1.000  H
  C243     1.0000 0.96189  0.44621  0.23701  Biso   1.000  C
  H215     1.0000 0.82250  0.49998  0.07659  Biso   1.000  H
  H216     1.0000 0.76538  0.53538  0.11949  Biso   1.000  H
  C244     1.0000 0.82378  0.60110  0.06470  Biso   1.000  C
  C245     1.0000 0.05709  0.53020  0.27608  Biso   1.000  C
  C246     1.0000 0.17399  0.71200  0.35629  Biso   1.000  C
  H217     1.0000 0.07409  0.74032  0.28852  Biso   1.000  H
  H218     1.0000 0.10059  0.66839  0.27669  Biso   1.000  H
  H219     1.0000 0.07138  0.74701  0.29350  Biso   1.000  H
  H220     1.0000 0.01947  0.77308  0.34668  Biso   1.000  H
  C247     1.0000 0.13681  0.74642  0.39159  Biso   1.000  C
  H221     1.0000 0.38000  0.70990  0.08268  Biso   1.000  H
  C248     1.0000 0.44348  0.78978  0.06269  Biso   1.000  C
  H222     1.0000 0.52438  0.86342  0.06208  Biso   1.000  H
  C249     1.0000 0.03929  0.34069  0.69602  Biso   1.000  C
  C250     1.0000 0.18562  0.33791  0.71848  Biso   1.000  C
  H223     1.0000 0.23482  0.40212  0.79028  Biso   1.000  H
  H224     1.0000 0.22487  0.39440  0.96858  Biso   1.000  H
  H225     1.0000 0.17342  0.36188  0.90498  Biso   1.000  H
  C251     1.0000 0.10312  0.39792  0.97049  Biso   1.000  C
  C252     1.0000 0.34527  0.55408  0.60418  Biso   1.000  C
  H226     1.0000 0.35527  0.55901  0.70569  Biso   1.000  H
  C253     1.0000 0.25399  0.63460  0.54582  Biso   1.000  C
  H227     1.0000 0.37188  0.74110  0.78242  Biso   1.000  H
  H228     1.0000 0.40700  0.68690  0.74068  Biso   1.000  H
  C254     1.0000 0.46781  0.69330  0.83691  Biso   1.000  C
  C255     1.0000 0.53219  0.30670  0.16309  Biso   1.000  C
  H229     1.0000 0.62808  0.25890  0.21762  Biso   1.000  H
  H230     1.0000 0.59301  0.31310  0.25931  Biso   1.000  H
  O42      1.0000 0.90320  0.29650  0.31999  Biso   1.000  O
  C256     1.0000 0.96692  0.38889  0.27512  Biso   1.000  C
  H231     1.0000 0.76571  0.45290  0.19552  Biso   1.000  H
  H232     1.0000 0.90699  0.34069  0.40171  Biso   1.000  H
  H233     1.0000 0.92348  0.26569  0.40861  Biso   1.000  H
  C257     1.0000 0.82602  0.28800  0.64370  Biso   1.000  C
  H234     1.0000 0.88523  0.24791  0.57291  Biso   1.000  H
  H235     1.0000 0.81579  0.20250  0.59028  Biso   1.000  H
  H236     1.0000 0.83898  0.21070  0.60982  Biso   1.000  H
  H237     1.0000 0.87540  0.26100  0.56349  Biso   1.000  H
  H238     1.0000 0.78998  0.26569  0.67009  Biso   1.000  H
  C258     1.0000 0.86320  0.25358  0.60841  Biso   1.000  C
  H239     1.0000 0.83703  0.34460  0.64199  Biso   1.000  H
  H240     1.0000 0.77951  0.29020  0.66248  Biso   1.000  H
  H241     1.0000 0.19673  0.54690  0.16959  Biso   1.000  H
  O43      1.0000 0.03618  0.47649  0.23348  Biso   1.000  O
  H242     1.0000 0.77508  0.60560  0.03142  Biso   1.000  H
  H243     1.0000 0.82659  0.63812  0.09501  Biso   1.000  H
  C259     1.0000 0.89689  0.60208  0.02951  Biso   1.000  C
  H244     1.0000 0.03141  0.52600  0.31571  Biso   1.000  H
  H245     1.0000 0.11529  0.53089  0.29078  Biso   1.000  H
  C260     1.0000 0.16998  0.75302  0.41742  Biso   1.000  C
  H246     1.0000 0.19881  0.67069  0.37049  Biso   1.000  H
  H247     1.0000 0.21002  0.73431  0.32991  Biso   1.000  H
  H248     1.0000 0.16298  0.65540  0.35800  Biso   1.000  H
  H249     1.0000 0.22050  0.70980  0.33751  Biso   1.000  H
  H250     1.0000 0.11478  0.75209  0.42709  Biso   1.000  H
  H251     1.0000 0.16102  0.78930  0.39018  Biso   1.000  H
  H252     1.0000 0.12460  0.73900  0.43650  Biso   1.000  H
  C261     1.0000 0.19399  0.69422  0.37361  Biso   1.000  C
  H253     1.0000 0.40870  0.80248  0.02402  Biso   1.000  H
  O44      1.0000 0.96890  0.32419  0.65252  Biso   1.000  O
  C262     1.0000 0.11230  0.31481  0.68308  Biso   1.000  C
  C263     1.0000 0.25948  0.31022  0.70111  Biso   1.000  C
  C264     1.0000 0.02931  0.37180  0.93952  Biso   1.000  C
  C265     1.0000 0.11007  0.42502  0.03479  Biso   1.000  C
  C266     1.0000 0.39962  0.49509  0.59929  Biso   1.000  C
  C267     1.0000 0.30733  0.58250  0.54421  Biso   1.000  C
  O45      1.0000 0.21001  0.65589  0.48489  Biso   1.000  O
  C268     1.0000 0.52131  0.64290  0.82860  Biso   1.000  C
  C269     1.0000 0.48869  0.73920  0.88801  Biso   1.000  C
  C270     1.0000 0.47870  0.35710  0.17140  Biso   1.000  C
  C271     1.0000 0.51131  0.26080  0.11198  Biso   1.000  C
  O46      1.0000 0.03832  0.36838  0.31440  Biso   1.000  O
  C272     1.0000 0.90710  0.30011  0.68902  Biso   1.000  C
  H254     1.0000 0.80120  0.32931  0.62950  Biso   1.000  H
  C273     1.0000 0.94097  0.25900  0.66138  Biso   1.000  C
  C274     1.0000 0.97071  0.62820  0.06052  Biso   1.000  C
  C275     1.0000 0.88988  0.57498  0.96521  Biso   1.000  C
  C276     1.0000 0.22699  0.72460  0.47598  Biso   1.000  C
  H255     1.0000 0.18422  0.79750  0.40972  Biso   1.000  H
  C277     1.0000 0.25599  0.67782  0.43439  Biso   1.000  C
  O47      1.0000 0.10452  0.26222  0.63922  Biso   1.000  O
  C278     1.0000 0.28658  0.34382  0.64250  Biso   1.000  C
  H256     1.0000 0.24661  0.26510  0.68691  Biso   1.000  H
  C279     1.0000 0.32658  0.30612  0.76651  Biso   1.000  C
  C280     1.0000 0.96248  0.37292  0.97271  Biso   1.000  C
  H257     1.0000 0.02461  0.35368  0.89672  Biso   1.000  H
  H258     1.0000 0.15928  0.44240  0.05538  Biso   1.000  H
  C281     1.0000 0.04330  0.42610  0.06792  Biso   1.000  C
  C282     1.0000 0.35203  0.43288  0.59401  Biso   1.000  C
  H259     1.0000 0.42070  0.49958  0.55690  Biso   1.000  H
  C283     1.0000 0.47629  0.49758  0.65841  Biso   1.000  C
  O48      1.0000 0.32262  0.56028  0.48152  Biso   1.000  O
  H260     1.0000 0.50741  0.61219  0.79451  Biso   1.000  H
  C284     1.0000 0.59580  0.63841  0.87140  Biso   1.000  C
  C285     1.0000 0.56318  0.73470  0.93081  Biso   1.000  C
  H261     1.0000 0.45310  0.77289  0.89350  Biso   1.000  H
  C286     1.0000 0.40420  0.36159  0.12860  Biso   1.000  C
  H262     1.0000 0.49260  0.38781  0.20549  Biso   1.000  H
  C287     1.0000 0.43682  0.26530  0.06918  Biso   1.000  C
  H263     1.0000 0.54691  0.22711  0.10650  Biso   1.000  H
  C288     1.0000 0.09500  0.33688  0.27830  Biso   1.000  C
  H264     1.0000 0.92592  0.25968  0.71148  Biso   1.000  H
  H265     1.0000 0.89941  0.33161  0.72331  Biso   1.000  H
  H266     1.0000 0.92857  0.25299  0.70649  Biso   1.000  H
  H267     1.0000 0.98048  0.22692  0.65332  Biso   1.000  H
  H268     1.0000 0.97541  0.64632  0.10332  Biso   1.000  H
  C289     1.0000 0.03752  0.62708  0.02729  Biso   1.000  C
  H269     1.0000 0.84072  0.55760  0.94461  Biso   1.000  H
  C290     1.0000 0.95672  0.57390  0.93213  Biso   1.000  C
  H270     1.0000 0.28268  0.72948  0.46848  Biso   1.000  H
  H271     1.0000 0.22202  0.74828  0.51702  Biso   1.000  H
  H272     1.0000 0.28802  0.71600  0.45000  Biso   1.000  H
  H273     1.0000 0.29203  0.64359  0.42392  Biso   1.000  H
  C291     1.0000 0.12248  0.27340  0.57729  Biso   1.000  C
  C292     1.0000 0.24901  0.32492  0.57840  Biso   1.000  C
  C293     1.0000 0.33810  0.39782  0.65040  Biso   1.000  C
  H274     1.0000 0.30298  0.28869  0.80372  Biso   1.000  H
  H275     1.0000 0.34709  0.34948  0.77890  Biso   1.000  H
  C294     1.0000 0.39390  0.26349  0.75352  Biso   1.000  C
  H276     1.0000 0.91331  0.35558  0.95201  Biso   1.000  H
  C295     1.0000 0.96948  0.40012  0.03690  Biso   1.000  C
  H277     1.0000 0.04802  0.44421  0.11082  Biso   1.000  H
  C296     1.0000 0.31428  0.41408  0.52991  Biso   1.000  C
  H278     1.0000 0.45972  0.48528  0.70060  Biso   1.000  H
  H279     1.0000 0.49698  0.54192  0.66299  Biso   1.000  H
  C297     1.0000 0.54198  0.45271  0.64441  Biso   1.000  C
  C298     1.0000 0.28758  0.50168  0.45529  Biso   1.000  C
  H280     1.0000 0.63138  0.60472  0.86581  Biso   1.000  H
  C299     1.0000 0.61672  0.68431  0.92240  Biso   1.000  C
  H281     1.0000 0.57713  0.76532  0.96480  Biso   1.000  H
  H282     1.0000 0.36857  0.39528  0.13419  Biso   1.000  H
  C300     1.0000 0.38329  0.31569  0.07759  Biso   1.000  C
  H283     1.0000 0.42288  0.23468  0.03520  Biso   1.000  H
  H284     1.0000 0.09681  0.36091  0.23701  Biso   1.000  H
  H285     1.0000 0.07570  0.29318  0.26601  Biso   1.000  H
  C301     1.0000 0.18279  0.33229  0.31918  Biso   1.000  C
  C302     1.0000 0.03047  0.59988  0.96309  Biso   1.000  C
  H286     1.0000 0.08670  0.64442  0.04799  Biso   1.000  H
  H287     1.0000 0.95200  0.55579  0.88922  Biso   1.000  H
  O49      1.0000 0.20077  0.27101  0.56510  Biso   1.000  O
  H288     1.0000 0.09152  0.24230  0.54698  Biso   1.000  H
  H289     1.0000 0.10158  0.31642  0.56359  Biso   1.000  H
  C303     1.0000 0.26281  0.36008  0.52200  Biso   1.000  C
  H290     1.0000 0.36322  0.41032  0.69310  Biso   1.000  H
  H291     1.0000 0.37208  0.22311  0.73278  Biso   1.000  H
  H292     1.0000 0.42401  0.28502  0.72261  Biso   1.000  H
  C304     1.0000 0.45188  0.24811  0.82109  Biso   1.000  C
  H293     1.0000 0.92488  0.40080  0.05901  Biso   1.000  H
  O50      1.0000 0.32770  0.44958  0.47160  Biso   1.000  O
  H294     1.0000 0.52142  0.40832  0.64109  Biso   1.000  H
  H295     1.0000 0.55681  0.46409  0.60131  Biso   1.000  H
  C305     1.0000 0.61862  0.45539  0.69919  Biso   1.000  C
  H296     1.0000 0.27800  0.50501  0.40659  Biso   1.000  H
  H297     1.0000 0.23520  0.49739  0.46948  Biso   1.000  H
  H298     1.0000 0.66627  0.68128  0.95100  Biso   1.000  H
  H299     1.0000 0.33367  0.31872  0.04899  Biso   1.000  H
  H300     1.0000 0.22283  0.31872  0.29219  Biso   1.000  H
  H301     1.0000 0.20021  0.37170  0.34421  Biso   1.000  H
  C306     1.0000 0.15841  0.27951  0.36148  Biso   1.000  C
  H302     1.0000 0.07512  0.59920  0.94099  Biso   1.000  H
  O51      1.0000 0.21618  0.35109  0.45891  Biso   1.000  O
  C307     1.0000 0.52139  0.28468  0.84400  Biso   1.000  C
  C308     1.0000 0.43471  0.19259  0.85639  Biso   1.000  C
  C309     1.0000 0.65700  0.51379  0.72120  Biso   1.000  C
  C310     1.0000 0.64937  0.39611  0.72638  Biso   1.000  C
  H303     1.0000 0.16108  0.23668  0.34129  Biso   1.000  H
  H304     1.0000 0.10510  0.28659  0.37311  Biso   1.000  H
  C311     1.0000 0.22869  0.29079  0.42331  Biso   1.000  C
  H305     1.0000 0.53278  0.32170  0.82049  Biso   1.000  H
  C312     1.0000 0.57372  0.26569  0.90211  Biso   1.000  C
  C313     1.0000 0.48698  0.17369  0.91450  Biso   1.000  C
  H306     1.0000 0.38842  0.16832  0.84119  Biso   1.000  H
  H307     1.0000 0.63653  0.55330  0.70302  Biso   1.000  H
  C314     1.0000 0.72631  0.51301  0.77039  Biso   1.000  C
  C315     1.0000 0.71868  0.39528  0.77558  Biso   1.000  C
  H308     1.0000 0.62381  0.35720  0.71178  Biso   1.000  H
  H309     1.0000 0.23072  0.25421  0.45418  Biso   1.000  H
  H310     1.0000 0.28031  0.29289  0.40740  Biso   1.000  H
  H311     1.0000 0.62001  0.29010  0.91732  Biso   1.000  H
  C316     1.0000 0.55653  0.21022  0.93731  Biso   1.000  C
  H312     1.0000 0.47563  0.13658  0.93791  Biso   1.000  H
  H313     1.0000 0.75193  0.55188  0.78499  Biso   1.000  H
  C317     1.0000 0.75712  0.45368  0.79758  Biso   1.000  C
  H314     1.0000 0.73922  0.35578  0.79380  Biso   1.000  H
  H315     1.0000 0.59130  0.19752  0.97598  Biso   1.000  H
  H316     1.0000 0.80328  0.45310  0.83041  Biso   1.000  H
  Ne1      1.0000 1.00000  0.50000  0.50000  Biso   1.000  Ne
  He1      1.0000 0.27234  0.48020  0.72626  Biso   1.000  He
  He2      1.0000 0.81941  0.53320  0.64940  Biso   1.000  He
  He3      1.0000 0.03185  0.76576  0.49323  Biso   1.000  He
  He4      1.0000 0.96800  0.23238  0.50651  Biso   1.000  He
  He5      1.0000 0.20460  0.56692  0.35451  Biso   1.000  He
  He6      1.0000 0.72992  0.51840  0.27357  Biso   1.000  He
  Ar1      1.0000 1.00000  0.50000  0.50000  Biso   1.000  Ar
  Ne2      1.0000 0.01295  0.99951  0.99963  Biso   1.000  Ne
  He7      1.0000 0.26160  0.02024  0.21545  Biso   1.000  He
  He8      1.0000 0.81709  0.06278  0.12827  Biso   1.000  He
  He9      1.0000 0.03155  0.73747  0.99280  Biso   1.000  He
  He10     1.0000 0.96786  0.26918  0.00629  Biso   1.000  He
  He11     1.0000 0.18187  0.03310  0.84929  Biso   1.000  He
  He12     1.0000 0.73478  0.97962  0.78136  Biso   1.000  He
  Ar2      1.0000 0.01260  1.00000  0.00314  Biso   1.000  Ar
