data_image0
_cell_length_a       24.871
_cell_length_b       16.157
_cell_length_c       22.458
_cell_angle_alpha    90
_cell_angle_beta     108.06
_cell_angle_gamma    90

_symmetry_space_group_name_H-M    "P 1"
_symmetry_int_tables_number       1

loop_
  _symmetry_equiv_pos_as_xyz
  'x, y, z'

loop_
  _atom_site_label
  _atom_site_occupancy
  _atom_site_fract_x
  _atom_site_fract_y
  _atom_site_fract_z
  _atom_site_thermal_displace_type
  _atom_site_B_iso_or_equiv
  _atom_site_type_symbol
  C1       1.0000 0.65699  0.57108  0.46751  Biso   1.000  C
  C2       1.0000 0.64519  0.62060  0.40714  Biso   1.000  C
  H1       1.0000 0.62247  0.54379  0.46830  Biso   1.000  H
  H2       1.0000 0.66843  0.60865  0.50291  Biso   1.000  H
  C3       1.0000 0.70280  0.50672  0.47402  Biso   1.000  C
  C4       1.0000 0.60055  0.60048  0.35393  Biso   1.000  C
  C5       1.0000 0.68045  0.68701  0.40311  Biso   1.000  C
  C6       1.0000 0.75951  0.52578  0.50268  Biso   1.000  C
  C7       1.0000 0.68951  0.42768  0.44868  Biso   1.000  C
  C8       1.0000 0.58999  0.64529  0.29970  Biso   1.000  C
  H3       1.0000 0.57743  0.55567  0.35524  Biso   1.000  H
  C9       1.0000 0.67061  0.73392  0.34827  Biso   1.000  C
  O1       1.0000 0.72601  0.70514  0.45411  Biso   1.000  O
  H4       1.0000 0.76939  0.57777  0.52043  Biso   1.000  H
  C10      1.0000 0.80107  0.46902  0.50507  Biso   1.000  C
  O2       1.0000 0.63337  0.41103  0.42020  Biso   1.000  O
  C11      1.0000 0.73121  0.36839  0.45158  Biso   1.000  C
  C12      1.0000 0.54111  0.63360  0.23956  Biso   1.000  C
  C13      1.0000 0.62417  0.71362  0.29712  Biso   1.000  C
  C14      1.0000 0.71166  0.80002  0.34583  Biso   1.000  C
  H5       1.0000 0.71500  0.71777  0.48371  Biso   1.000  H
  C15      1.0000 0.78732  0.38961  0.48081  Biso   1.000  C
  C16      1.0000 0.86452  0.48437  0.52792  Biso   1.000  C
  H6       1.0000 0.63027  0.37074  0.39721  Biso   1.000  H
  C17      1.0000 0.71508  0.28551  0.42067  Biso   1.000  C
  C18      1.0000 0.56503  0.63161  0.18425  Biso   1.000  C
  H7       1.0000 0.51814  0.58482  0.24097  Biso   1.000  H
  C19      1.0000 0.50749  0.71338  0.23108  Biso   1.000  C
  C20      1.0000 0.60211  0.76208  0.23656  Biso   1.000  C
  C21      1.0000 0.72398  0.86532  0.38826  Biso   1.000  C
  C22      1.0000 0.74163  0.79458  0.30307  Biso   1.000  C
  C23      1.0000 0.83915  0.33657  0.48671  Biso   1.000  C
  C24      1.0000 0.89021  0.41920  0.57687  Biso   1.000  C
  H8       1.0000 0.87411  0.54082  0.54366  Biso   1.000  H
  C25      1.0000 0.88429  0.46500  0.47158  Biso   1.000  C
  C26      1.0000 0.68440  0.22838  0.44362  Biso   1.000  C
  C27      1.0000 0.73033  0.26471  0.36770  Biso   1.000  C
  C28      1.0000 0.55428  0.57238  0.13638  Biso   1.000  C
  C29      1.0000 0.59819  0.70118  0.18322  Biso   1.000  C
  C30      1.0000 0.54049  0.78362  0.22930  Biso   1.000  C
  C31      1.0000 0.45095  0.72210  0.22443  Biso   1.000  C
  H9       1.0000 0.62515  0.81092  0.23530  Biso   1.000  H
  C32      1.0000 0.76450  0.92350  0.38751  Biso   1.000  C
  H10      1.0000 0.70469  0.86984  0.41758  Biso   1.000  H
  C33      1.0000 0.78268  0.85171  0.30293  Biso   1.000  C
  H11      1.0000 0.73382  0.75162  0.27403  Biso   1.000  H
  H12      1.0000 0.82941  0.28025  0.47102  Biso   1.000  H
  C34      1.0000 0.87634  0.33849  0.55434  Biso   1.000  C
  C35      1.0000 0.87172  0.38349  0.45037  Biso   1.000  C
  C36      1.0000 0.92476  0.43152  0.63724  Biso   1.000  C
  C37      1.0000 0.91105  0.51860  0.44048  Biso   1.000  C
  H13      1.0000 0.67391  0.24194  0.47870  Biso   1.000  H
  C38      1.0000 0.66925  0.15238  0.41552  Biso   1.000  C
  C39      1.0000 0.71455  0.18939  0.33820  Biso   1.000  C
  H14      1.0000 0.75127  0.30173  0.35215  Biso   1.000  H
  C40      1.0000 0.51693  0.49898  0.13353  Biso   1.000  C
  C41      1.0000 0.57788  0.58631  0.08753  Biso   1.000  C
  C42      1.0000 0.62091  0.71238  0.13512  Biso   1.000  C
  C43      1.0000 0.51634  0.86117  0.21989  Biso   1.000  C
  H15      1.0000 0.42903  0.67605  0.22612  Biso   1.000  H
  C44      1.0000 0.42678  0.80089  0.21507  Biso   1.000  C
  C45      1.0000 0.79442  0.91632  0.34471  Biso   1.000  C
  H16      1.0000 0.77179  0.96744  0.41557  Biso   1.000  H
  H17      1.0000 0.80259  0.84651  0.27422  Biso   1.000  H
  C46      1.0000 0.89722  0.27103  0.59288  Biso   1.000  C
  C47      1.0000 0.88744  0.35427  0.40124  Biso   1.000  C
  H18      1.0000 0.93445  0.48487  0.65232  Biso   1.000  H
  C48      1.0000 0.94530  0.36269  0.67602  Biso   1.000  C
  C49      1.0000 0.92548  0.48710  0.38976  Biso   1.000  C
  C50      1.0000 0.91976  0.60878  0.45538  Biso   1.000  C
  H19      1.0000 0.64934  0.11450  0.43173  Biso   1.000  H
  C51      1.0000 0.68443  0.13369  0.36232  Biso   1.000  C
  H20      1.0000 0.72409  0.17633  0.30246  Biso   1.000  H
  C52      1.0000 0.53725  0.41982  0.13128  Biso   1.000  C
  C53      1.0000 0.46105  0.50888  0.13198  Biso   1.000  C
  O3       1.0000 0.56683  0.53395  0.03714  Biso   1.000  O
  C54      1.0000 0.61088  0.65538  0.08693  Biso   1.000  C
  H21      1.0000 0.64316  0.75868  0.13503  Biso   1.000  H
  C55      1.0000 0.45901  0.86910  0.21272  Biso   1.000  C
  H22      1.0000 0.53806  0.90753  0.21834  Biso   1.000  H
  H23      1.0000 0.38850  0.80720  0.21034  Biso   1.000  H
  H24      1.0000 0.82207  0.95494  0.34438  Biso   1.000  H
  C56      1.0000 0.93192  0.28421  0.65349  Biso   1.000  C
  H25      1.0000 0.88793  0.21749  0.57808  Biso   1.000  H
  C57      1.0000 0.91523  0.40441  0.36981  Biso   1.000  C
  H26      1.0000 0.87936  0.29968  0.38845  Biso   1.000  H
  H27      1.0000 0.96809  0.37061  0.71704  Biso   1.000  H
  O4       1.0000 0.95028  0.53506  0.35524  Biso   1.000  O
  C58      1.0000 0.97343  0.64139  0.47903  Biso   1.000  C
  C59      1.0000 0.87410  0.66219  0.44250  Biso   1.000  C
  H28      1.0000 0.67413  0.08294  0.34260  Biso   1.000  H
  C60      1.0000 0.50206  0.35198  0.12664  Biso   1.000  C
  H29      1.0000 0.57470  0.41202  0.13292  Biso   1.000  H
  C61      1.0000 0.42643  0.44229  0.12809  Biso   1.000  C
  H30      1.0000 0.44699  0.56192  0.13357  Biso   1.000  H
  H31      1.0000 0.55684  0.48877  0.04669  Biso   1.000  H
  C62      1.0000 0.63737  0.66801  0.03503  Biso   1.000  C
  H32      1.0000 0.44230  0.92121  0.20631  Biso   1.000  H
  H33      1.0000 0.94633  0.23909  0.67925  Biso   1.000  H
  C63      1.0000 0.93343  0.37191  0.31632  Biso   1.000  C
  H34      1.0000 0.95833  0.58031  0.37210  Biso   1.000  H
  C64      1.0000 0.98163  0.72538  0.48793  Biso   1.000  C
  H35      1.0000 0.00451  0.60618  0.48924  Biso   1.000  H
  C65      1.0000 0.88213  0.74643  0.45121  Biso   1.000  C
  H36      1.0000 0.83752  0.64115  0.42774  Biso   1.000  H
  C66      1.0000 0.44679  0.36312  0.12556  Biso   1.000  C
  H37      1.0000 0.51572  0.29888  0.12430  Biso   1.000  H
  H38      1.0000 0.38911  0.45015  0.12720  Biso   1.000  H
  C67      1.0000 0.69816  0.63688  0.05442  Biso   1.000  C
  H39      1.0000 0.63668  0.72637  0.02482  Biso   1.000  H
  H40      1.0000 0.61532  0.63855  0.99780  Biso   1.000  H
  C68      1.0000 0.89248  0.38708  0.25277  Biso   1.000  C
  H41      1.0000 0.93967  0.31274  0.32180  Biso   1.000  H
  H42      1.0000 0.96930  0.39723  0.31820  Biso   1.000  H
  C69      1.0000 0.93683  0.77750  0.47411  Biso   1.000  C
  H43      1.0000 0.01819  0.74649  0.50334  Biso   1.000  H
  H44      1.0000 0.85128  0.78201  0.44184  Biso   1.000  H
  H45      1.0000 0.42330  0.31763  0.12308  Biso   1.000  H
  C70      1.0000 0.74309  0.68880  0.08421  Biso   1.000  C
  C71      1.0000 0.70921  0.55301  0.04665  Biso   1.000  C
  C72      1.0000 0.89946  0.45268  0.21596  Biso   1.000  C
  C73      1.0000 0.84575  0.33490  0.22790  Biso   1.000  C
  H46      1.0000 0.94264  0.83413  0.48006  Biso   1.000  H
  O5       1.0000 0.73122  0.77001  0.09283  Biso   1.000  O
  C74      1.0000 0.79942  0.65978  0.10449  Biso   1.000  C
  C75      1.0000 0.76391  0.52423  0.06711  Biso   1.000  C
  H47      1.0000 0.67962  0.51705  0.02768  Biso   1.000  H
  C76      1.0000 0.86280  0.46512  0.15680  Biso   1.000  C
  H48      1.0000 0.92960  0.48889  0.23169  Biso   1.000  H
  C77      1.0000 0.80739  0.34691  0.16772  Biso   1.000  C
  O6       1.0000 0.83957  0.27084  0.26527  Biso   1.000  O
  H49      1.0000 0.76055  0.79414  0.11184  Biso   1.000  H
  C78      1.0000 0.80847  0.57752  0.09414  Biso   1.000  C
  C79      1.0000 0.84636  0.71430  0.14130  Biso   1.000  C
  C80      1.0000 0.78297  0.43461  0.06510  Biso   1.000  C
  C81      1.0000 0.86621  0.53420  0.11151  Biso   1.000  C
  C82      1.0000 0.81732  0.41177  0.13207  Biso   1.000  C
  C83      1.0000 0.75730  0.29090  0.14547  Biso   1.000  C
  H50      1.0000 0.80804  0.25036  0.25061  Biso   1.000  H
  C84      1.0000 0.86560  0.70979  0.20603  Biso   1.000  C
  C85      1.0000 0.87247  0.76852  0.11222  Biso   1.000  C
  H51      1.0000 0.75141  0.39667  0.04702  Biso   1.000  H
  C86      1.0000 0.82519  0.43690  0.02834  Biso   1.000  C
  H52      1.0000 0.89782  0.57220  0.12936  Biso   1.000  H
  C87      1.0000 0.86974  0.49149  0.05377  Biso   1.000  C
  C88      1.0000 0.76540  0.20938  0.12889  Biso   1.000  C
  C89      1.0000 0.70319  0.31720  0.13690  Biso   1.000  C
  C90      1.0000 0.71333  0.30408  0.17352  Biso   1.000  C
  C91      1.0000 0.75149  0.22708  0.10491  Biso   1.000  C
  H53      1.0000 0.84855  0.67290  0.22640  Biso   1.000  H
  C92      1.0000 0.90940  0.75893  0.24083  Biso   1.000  C
  C93      1.0000 0.91768  0.81562  0.14631  Biso   1.000  C
  H54      1.0000 0.85952  0.77347  0.06880  Biso   1.000  H
  C94      1.0000 0.82245  0.39190  0.97518  Biso   1.000  C
  C95      1.0000 0.91163  0.50040  0.02501  Biso   1.000  C
  H55      1.0000 0.80209  0.19094  0.13456  Biso   1.000  H
  C96      1.0000 0.72090  0.15541  0.10449  Biso   1.000  C
  C97      1.0000 0.70339  0.17670  0.09180  Biso   1.000  C
  H56      1.0000 0.77921  0.21681  0.08599  Biso   1.000  H
  C98      1.0000 0.65774  0.26546  0.11269  Biso   1.000  C
  H57      1.0000 0.69706  0.37117  0.14758  Biso   1.000  H
  C99      1.0000 0.66661  0.25283  0.15919  Biso   1.000  C
  H58      1.0000 0.71630  0.34747  0.20153  Biso   1.000  H
  H59      1.0000 0.92145  0.75596  0.28429  Biso   1.000  H
  C100     1.0000 0.93507  0.81191  0.21071  Biso   1.000  C
  H60      1.0000 0.93640  0.84991  0.12585  Biso   1.000  H
  C101     1.0000 0.86452  0.40218  0.94694  Biso   1.000  C
  H61      1.0000 0.79281  0.35508  0.95850  Biso   1.000  H
  H62      1.0000 0.94144  0.53698  0.04159  Biso   1.000  H
  C102     1.0000 0.90914  0.45553  0.97232  Biso   1.000  C
  H63      1.0000 0.72717  0.10144  0.09386  Biso   1.000  H
  C103     1.0000 0.66619  0.18481  0.09648  Biso   1.000  C
  C104     1.0000 0.66019  0.18803  0.11831  Biso   1.000  C
  H64      1.0000 0.70023  0.13313  0.06384  Biso   1.000  H
  H65      1.0000 0.62127  0.28458  0.10725  Biso   1.000  H
  H66      1.0000 0.63865  0.26249  0.17793  Biso   1.000  H
  H67      1.0000 0.96445  0.84558  0.23380  Biso   1.000  H
  H68      1.0000 0.86256  0.37290  0.91064  Biso   1.000  H
  H69      1.0000 0.93758  0.46098  0.95368  Biso   1.000  H
  H70      1.0000 0.63536  0.15003  0.08013  Biso   1.000  H
  H71      1.0000 0.62878  0.15349  0.10866  Biso   1.000  H
  C105     1.0000 0.34307  0.42892  0.53251  Biso   1.000  C
  C106     1.0000 0.35486  0.37940  0.59288  Biso   1.000  C
  H72      1.0000 0.37755  0.45621  0.53172  Biso   1.000  H
  H73      1.0000 0.33159  0.39135  0.49711  Biso   1.000  H
  C107     1.0000 0.29726  0.49328  0.52600  Biso   1.000  C
  C108     1.0000 0.31960  0.31299  0.59691  Biso   1.000  C
  C109     1.0000 0.39951  0.39952  0.64609  Biso   1.000  C
  C110     1.0000 0.24051  0.47422  0.49734  Biso   1.000  C
  C111     1.0000 0.31051  0.57232  0.55134  Biso   1.000  C
  O7       1.0000 0.27404  0.29486  0.54591  Biso   1.000  O
  C112     1.0000 0.32941  0.26608  0.65176  Biso   1.000  C
  C113     1.0000 0.41007  0.35471  0.70032  Biso   1.000  C
  H74      1.0000 0.42263  0.44433  0.64478  Biso   1.000  H
  H75      1.0000 0.23067  0.42223  0.47959  Biso   1.000  H
  C114     1.0000 0.19895  0.53098  0.49495  Biso   1.000  C
  O8       1.0000 0.36669  0.58897  0.57982  Biso   1.000  O
  C115     1.0000 0.26884  0.63161  0.54844  Biso   1.000  C
  H76      1.0000 0.28506  0.28223  0.51631  Biso   1.000  H
  C116     1.0000 0.37585  0.28644  0.70290  Biso   1.000  C
  C117     1.0000 0.28839  0.19998  0.65419  Biso   1.000  C
  C118     1.0000 0.45895  0.36640  0.76046  Biso   1.000  C
  C119     1.0000 0.21273  0.61039  0.51921  Biso   1.000  C
  C120     1.0000 0.13553  0.51563  0.47210  Biso   1.000  C
  H77      1.0000 0.36975  0.62926  0.60281  Biso   1.000  H
  C121     1.0000 0.28497  0.71449  0.57935  Biso   1.000  C
  C122     1.0000 0.39795  0.23792  0.76346  Biso   1.000  C
  C123     1.0000 0.27607  0.13468  0.61176  Biso   1.000  C
  C124     1.0000 0.25843  0.20542  0.69695  Biso   1.000  C
  C125     1.0000 0.43503  0.36839  0.81577  Biso   1.000  C
  H78      1.0000 0.48192  0.41518  0.75906  Biso   1.000  H
  C126     1.0000 0.49256  0.28662  0.76894  Biso   1.000  C
  C127     1.0000 0.16090  0.66343  0.51331  Biso   1.000  C
  C128     1.0000 0.10985  0.58080  0.42315  Biso   1.000  C
  H79      1.0000 0.12594  0.45918  0.45636  Biso   1.000  H
  C129     1.0000 0.11576  0.53500  0.52844  Biso   1.000  C
  C130     1.0000 0.31562  0.77162  0.55640  Biso   1.000  C
  C131     1.0000 0.26973  0.73529  0.63232  Biso   1.000  C
  C132     1.0000 0.40187  0.29882  0.81680  Biso   1.000  C
  C133     1.0000 0.45957  0.21638  0.77072  Biso   1.000  C
  H80      1.0000 0.37490  0.18908  0.76472  Biso   1.000  H
  C134     1.0000 0.23551  0.07650  0.61251  Biso   1.000  C
  H81      1.0000 0.29533  0.13016  0.58244  Biso   1.000  H
  C135     1.0000 0.21738  0.14829  0.69709  Biso   1.000  C
  H82      1.0000 0.26624  0.24838  0.72599  Biso   1.000  H
  C136     1.0000 0.44578  0.42762  0.86364  Biso   1.000  C
  C137     1.0000 0.54911  0.27790  0.77559  Biso   1.000  C
  H83      1.0000 0.17064  0.71975  0.52900  Biso   1.000  H
  C138     1.0000 0.12372  0.66151  0.44568  Biso   1.000  C
  C139     1.0000 0.12834  0.61651  0.54966  Biso   1.000  C
  C140     1.0000 0.07530  0.56848  0.36278  Biso   1.000  C
  C141     1.0000 0.08897  0.48140  0.55954  Biso   1.000  C
  H84      1.0000 0.32615  0.75806  0.52132  Biso   1.000  H
  C142     1.0000 0.33081  0.84762  0.58450  Biso   1.000  C
  C143     1.0000 0.28551  0.81061  0.66183  Biso   1.000  C
  H85      1.0000 0.24875  0.69827  0.64787  Biso   1.000  H
  C144     1.0000 0.37914  0.28762  0.86490  Biso   1.000  C
  C145     1.0000 0.48372  0.13883  0.78013  Biso   1.000  C
  C146     1.0000 0.20564  0.08368  0.65532  Biso   1.000  C
  H86      1.0000 0.22826  0.03256  0.58445  Biso   1.000  H
  H87      1.0000 0.19743  0.15349  0.72580  Biso   1.000  H
  C147     1.0000 0.42218  0.41369  0.91249  Biso   1.000  C
  C148     1.0000 0.48312  0.50102  0.86649  Biso   1.000  C
  H88      1.0000 0.57099  0.32395  0.77390  Biso   1.000  H
  C149     1.0000 0.57328  0.19911  0.78495  Biso   1.000  C
  C150     1.0000 0.10283  0.72903  0.40714  Biso   1.000  C
  C151     1.0000 0.11262  0.64573  0.59879  Biso   1.000  C
  H89      1.0000 0.06561  0.51513  0.34770  Biso   1.000  H
  C152     1.0000 0.05475  0.63731  0.32400  Biso   1.000  C
  C153     1.0000 0.07458  0.51290  0.61026  Biso   1.000  C
  C154     1.0000 0.08029  0.39122  0.54464  Biso   1.000  C
  H90      1.0000 0.35071  0.88550  0.56830  Biso   1.000  H
  C155     1.0000 0.31562  0.86631  0.63771  Biso   1.000  C
  H91      1.0000 0.27597  0.82367  0.69756  Biso   1.000  H
  C156     1.0000 0.38918  0.34462  0.91310  Biso   1.000  C
  H92      1.0000 0.35689  0.24132  0.86500  Biso   1.000  H
  C157     1.0000 0.54105  0.13090  0.78730  Biso   1.000  C
  H93      1.0000 0.46199  0.09247  0.78168  Biso   1.000  H
  H94      1.0000 0.17799  0.04512  0.65564  Biso   1.000  H
  O9       1.0000 0.43323  0.46605  0.96288  Biso   1.000  O
  C158     1.0000 0.46280  0.58018  0.86874  Biso   1.000  C
  C159     1.0000 0.53896  0.49112  0.86804  Biso   1.000  C
  H95      1.0000 0.61156  0.19280  0.78969  Biso   1.000  H
  C160     1.0000 0.06814  0.71579  0.34653  Biso   1.000  C
  H96      1.0000 0.11212  0.78251  0.42194  Biso   1.000  H
  C161     1.0000 0.08483  0.59559  0.63021  Biso   1.000  C
  H97      1.0000 0.12066  0.70032  0.61157  Biso   1.000  H
  H98      1.0000 0.03197  0.62939  0.28298  Biso   1.000  H
  O10      1.0000 0.04978  0.46494  0.64478  Biso   1.000  O
  C162     1.0000 0.02663  0.35861  0.52099  Biso   1.000  C
  C163     1.0000 0.12596  0.33781  0.55752  Biso   1.000  C
  H99      1.0000 0.32593  0.91706  0.65742  Biso   1.000  H
  C164     1.0000 0.36269  0.33199  0.96499  Biso   1.000  C
  H100     1.0000 0.55776  0.07879  0.79371  Biso   1.000  H
  H101     1.0000 0.44322  0.51123  0.95333  Biso   1.000  H
  H102     1.0000 0.42531  0.58798  0.86710  Biso   1.000  H
  C165     1.0000 0.49800  0.64802  0.87338  Biso   1.000  C
  C166     1.0000 0.57362  0.55771  0.87193  Biso   1.000  C
  H103     1.0000 0.55307  0.43808  0.86645  Biso   1.000  H
  H104     1.0000 0.05373  0.76091  0.32077  Biso   1.000  H
  C167     1.0000 0.06663  0.62809  0.68370  Biso   1.000  C
  H105     1.0000 0.04168  0.41969  0.62792  Biso   1.000  H
  C168     1.0000 0.01843  0.27462  0.51209  Biso   1.000  C
  H106     1.0000 0.99555  0.39382  0.51078  Biso   1.000  H
  C169     1.0000 0.11793  0.25357  0.54881  Biso   1.000  C
  H107     1.0000 0.16249  0.35885  0.57228  Biso   1.000  H
  C170     1.0000 0.30190  0.36312  0.94560  Biso   1.000  C
  H108     1.0000 0.36338  0.27363  0.97520  Biso   1.000  H
  H109     1.0000 0.38469  0.36145  0.00222  Biso   1.000  H
  H110     1.0000 0.48434  0.70112  0.87572  Biso   1.000  H
  C171     1.0000 0.55326  0.63688  0.87446  Biso   1.000  C
  H111     1.0000 0.61094  0.54985  0.87282  Biso   1.000  H
  H112     1.0000 0.06039  0.68726  0.67822  Biso   1.000  H
  H113     1.0000 0.03076  0.60277  0.68182  Biso   1.000  H
  C172     1.0000 0.10758  0.61292  0.74725  Biso   1.000  C
  C173     1.0000 0.06323  0.22250  0.52591  Biso   1.000  C
  H114     1.0000 0.98187  0.25351  0.49669  Biso   1.000  H
  H115     1.0000 0.14878  0.21799  0.55818  Biso   1.000  H
  C174     1.0000 0.25697  0.31120  0.91581  Biso   1.000  C
  C175     1.0000 0.29085  0.44699  0.95337  Biso   1.000  C
  H116     1.0000 0.57676  0.68243  0.87694  Biso   1.000  H
  C176     1.0000 0.10059  0.54732  0.78406  Biso   1.000  C
  C177     1.0000 0.15426  0.66510  0.77212  Biso   1.000  C
  H117     1.0000 0.05742  0.16587  0.51996  Biso   1.000  H
  O11      1.0000 0.26883  0.22999  0.90719  Biso   1.000  O
  C178     1.0000 0.20063  0.34022  0.89553  Biso   1.000  C
  C179     1.0000 0.23614  0.47583  0.93291  Biso   1.000  C
  H118     1.0000 0.32044  0.48295  0.97234  Biso   1.000  H
  C180     1.0000 0.13726  0.53488  0.84322  Biso   1.000  C
  H119     1.0000 0.07042  0.51111  0.76833  Biso   1.000  H
  C181     1.0000 0.19266  0.65309  0.83230  Biso   1.000  C
  O12      1.0000 0.16049  0.72916  0.73475  Biso   1.000  O
  H120     1.0000 0.23951  0.20586  0.88818  Biso   1.000  H
  C182     1.0000 0.19159  0.42248  0.90588  Biso   1.000  C
  C183     1.0000 0.15370  0.28570  0.85872  Biso   1.000  C
  C184     1.0000 0.21709  0.56539  0.93492  Biso   1.000  C
  C185     1.0000 0.13385  0.46580  0.88851  Biso   1.000  C
  C186     1.0000 0.18274  0.58823  0.86795  Biso   1.000  C
  C187     1.0000 0.24276  0.70910  0.85455  Biso   1.000  C
  H121     1.0000 0.19201  0.74964  0.74941  Biso   1.000  H
  C188     1.0000 0.13441  0.29021  0.79399  Biso   1.000  C
  C189     1.0000 0.12758  0.23148  0.88780  Biso   1.000  C
  H122     1.0000 0.24864  0.60333  0.95300  Biso   1.000  H
  C190     1.0000 0.17483  0.56310  0.97169  Biso   1.000  C
  H123     1.0000 0.10224  0.42786  0.87066  Biso   1.000  H
  C191     1.0000 0.13032  0.50851  0.94625  Biso   1.000  C
  C192     1.0000 0.23465  0.79062  0.87113  Biso   1.000  C
  C193     1.0000 0.29682  0.68280  0.86312  Biso   1.000  C
  C194     1.0000 0.28673  0.69592  0.82650  Biso   1.000  C
  C195     1.0000 0.24852  0.77292  0.89511  Biso   1.000  C
  H124     1.0000 0.15151  0.32710  0.77362  Biso   1.000  H
  C196     1.0000 0.09062  0.24107  0.75920  Biso   1.000  C
  C197     1.0000 0.08237  0.18438  0.85371  Biso   1.000  C
  H125     1.0000 0.14054  0.22653  0.93122  Biso   1.000  H
  C198     1.0000 0.17761  0.60810  0.02484  Biso   1.000  C
  C199     1.0000 0.08843  0.49960  0.97501  Biso   1.000  C
  H126     1.0000 0.19797  0.80906  0.86546  Biso   1.000  H
  C200     1.0000 0.27916  0.84459  0.89553  Biso   1.000  C
  C201     1.0000 0.29666  0.82330  0.90822  Biso   1.000  C
  H127     1.0000 0.22085  0.78319  0.91403  Biso   1.000  H
  C202     1.0000 0.34232  0.73454  0.88734  Biso   1.000  C
  H128     1.0000 0.30300  0.62883  0.85244  Biso   1.000  H
  C203     1.0000 0.33344  0.74723  0.84083  Biso   1.000  C
  H129     1.0000 0.28376  0.65253  0.79849  Biso   1.000  H
  H130     1.0000 0.07861  0.24404  0.71573  Biso   1.000  H
  C204     1.0000 0.06495  0.18809  0.78931  Biso   1.000  C
  H131     1.0000 0.06366  0.15009  0.87418  Biso   1.000  H
  C205     1.0000 0.13549  0.59782  0.05309  Biso   1.000  C
  H132     1.0000 0.20724  0.64492  0.04152  Biso   1.000  H
  H133     1.0000 0.05862  0.46308  0.95843  Biso   1.000  H
  C206     1.0000 0.09091  0.54453  0.02770  Biso   1.000  C
  H134     1.0000 0.27289  0.89856  0.90616  Biso   1.000  H
  C207     1.0000 0.33383  0.81519  0.90354  Biso   1.000  C
  C208     1.0000 0.33982  0.81203  0.88172  Biso   1.000  C
  H135     1.0000 0.29983  0.86687  0.93619  Biso   1.000  H
  H136     1.0000 0.37878  0.71542  0.89277  Biso   1.000  H
  H137     1.0000 0.36141  0.73751  0.82209  Biso   1.000  H
  H138     1.0000 0.03561  0.15442  0.76622  Biso   1.000  H
  H139     1.0000 0.13749  0.62710  0.08938  Biso   1.000  H
  H140     1.0000 0.06248  0.53902  0.04634  Biso   1.000  H
  H141     1.0000 0.36470  0.84997  0.91989  Biso   1.000  H
  H142     1.0000 0.37127  0.84651  0.89136  Biso   1.000  H
  C209     1.0000 0.48367  0.36121  0.28012  Biso   1.000  C
  C210     1.0000 0.45952  0.28359  0.27071  Biso   1.000  C
  C211     1.0000 0.54100  0.36913  0.28729  Biso   1.000  C
  H143     1.0000 0.46199  0.40750  0.28167  Biso   1.000  H
  C212     1.0000 0.39790  0.26212  0.26345  Biso   1.000  C
  C213     1.0000 0.49256  0.21341  0.26893  Biso   1.000  C
  C214     1.0000 0.57323  0.30092  0.28494  Biso   1.000  C
  H144     1.0000 0.55771  0.42118  0.29370  Biso   1.000  H
  C215     1.0000 0.37584  0.21359  0.20289  Biso   1.000  C
  C216     1.0000 0.40182  0.20121  0.31679  Biso   1.000  C
  H145     1.0000 0.37485  0.31089  0.26471  Biso   1.000  H
  C217     1.0000 0.45894  0.13363  0.26045  Biso   1.000  C
  C218     1.0000 0.54910  0.22207  0.27558  Biso   1.000  C
  H146     1.0000 0.61151  0.30724  0.28967  Biso   1.000  H
  C219     1.0000 0.32940  0.23389  0.15175  Biso   1.000  C
  C220     1.0000 0.41006  0.14532  0.20031  Biso   1.000  C
  C221     1.0000 0.37910  0.21242  0.36489  Biso   1.000  C
  C222     1.0000 0.43502  0.13158  0.31576  Biso   1.000  C
  H147     1.0000 0.48187  0.08479  0.25904  Biso   1.000  H
  H148     1.0000 0.57098  0.17602  0.27389  Biso   1.000  H
  C223     1.0000 0.28835  0.29999  0.15418  Biso   1.000  C
  C224     1.0000 0.31960  0.18698  0.09690  Biso   1.000  C
  C225     1.0000 0.39950  0.10051  0.14608  Biso   1.000  C
  C226     1.0000 0.38913  0.15541  0.41308  Biso   1.000  C
  H149     1.0000 0.35689  0.25865  0.36499  Biso   1.000  H
  C227     1.0000 0.44577  0.07241  0.36363  Biso   1.000  C
  C228     1.0000 0.25838  0.29461  0.19694  Biso   1.000  C
  C229     1.0000 0.27603  0.36529  0.11175  Biso   1.000  C
  O13      1.0000 0.27400  0.20517  0.04590  Biso   1.000  O
  C230     1.0000 0.35482  0.12063  0.09287  Biso   1.000  C
  H150     1.0000 0.42258  0.05570  0.14477  Biso   1.000  H
  C231     1.0000 0.42213  0.08628  0.41248  Biso   1.000  C
  C232     1.0000 0.36264  0.16798  0.46498  Biso   1.000  C
  C233     1.0000 0.48308  0.99901  0.36648  Biso   1.000  C
  C234     1.0000 0.21737  0.35167  0.19708  Biso   1.000  C
  H151     1.0000 0.26619  0.25159  0.22598  Biso   1.000  H
  C235     1.0000 0.23550  0.42353  0.11250  Biso   1.000  C
  H152     1.0000 0.29532  0.36981  0.08243  Biso   1.000  H
  H153     1.0000 0.28505  0.21774  0.01630  Biso   1.000  H
  C236     1.0000 0.34306  0.07111  0.03250  Biso   1.000  C
  O14      1.0000 0.43322  0.03392  0.46287  Biso   1.000  O
  C237     1.0000 0.30189  0.13691  0.44559  Biso   1.000  C
  H154     1.0000 0.38473  0.13858  0.50221  Biso   1.000  H
  H155     1.0000 0.36337  0.22634  0.47519  Biso   1.000  H
  C238     1.0000 0.53895  0.00891  0.36803  Biso   1.000  C
  C239     1.0000 0.46280  0.91979  0.36873  Biso   1.000  C
  H156     1.0000 0.19742  0.34648  0.22579  Biso   1.000  H
  C240     1.0000 0.20559  0.41629  0.15530  Biso   1.000  C
  H157     1.0000 0.22825  0.46748  0.08444  Biso   1.000  H
  H158     1.0000 0.37754  0.04376  0.03171  Biso   1.000  H
  C241     1.0000 0.29725  0.00668  0.02599  Biso   1.000  C
  H159     1.0000 0.33162  0.10862  0.99710  Biso   1.000  H
  H160     1.0000 0.44321  0.98880  0.45332  Biso   1.000  H
  C242     1.0000 0.25696  0.18883  0.41580  Biso   1.000  C
  C243     1.0000 0.29084  0.05298  0.45336  Biso   1.000  C
  H161     1.0000 0.55302  0.06195  0.36644  Biso   1.000  H
  C244     1.0000 0.57362  0.94232  0.37192  Biso   1.000  C
  H162     1.0000 0.42531  0.91199  0.36709  Biso   1.000  H
  C245     1.0000 0.49799  0.85201  0.37337  Biso   1.000  C
  H163     1.0000 0.17798  0.45491  0.15563  Biso   1.000  H
  C246     1.0000 0.31050  0.92771  0.05133  Biso   1.000  C
  C247     1.0000 0.24054  0.02581  0.99733  Biso   1.000  C
  O15      1.0000 0.26878  0.27004  0.40718  Biso   1.000  O
  C248     1.0000 0.20062  0.15981  0.39552  Biso   1.000  C
  C249     1.0000 0.23614  0.02420  0.43290  Biso   1.000  C
  H164     1.0000 0.32043  0.01708  0.47233  Biso   1.000  H
  C250     1.0000 0.55321  0.86309  0.37445  Biso   1.000  C
  H165     1.0000 0.61090  0.95011  0.37281  Biso   1.000  H
  H166     1.0000 0.48429  0.79891  0.37571  Biso   1.000  H
  O16      1.0000 0.36668  0.91106  0.07981  Biso   1.000  O
  C251     1.0000 0.26883  0.86842  0.04843  Biso   1.000  C
  C252     1.0000 0.19898  0.96899  0.99494  Biso   1.000  C
  H167     1.0000 0.23070  0.07774  0.97958  Biso   1.000  H
  H168     1.0000 0.23950  0.29418  0.38817  Biso   1.000  H
  C253     1.0000 0.19154  0.07749  0.40587  Biso   1.000  C
  C254     1.0000 0.15369  0.21427  0.35871  Biso   1.000  C
  C255     1.0000 0.21708  0.93458  0.43491  Biso   1.000  C
  H169     1.0000 0.57671  0.81760  0.37693  Biso   1.000  H
  H170     1.0000 0.36974  0.87071  0.10280  Biso   1.000  H
  C256     1.0000 0.21269  0.88958  0.01920  Biso   1.000  C
  C257     1.0000 0.28497  0.78548  0.07934  Biso   1.000  C
  C258     1.0000 0.13553  0.98440  0.97209  Biso   1.000  C
  C259     1.0000 0.13384  0.03423  0.38850  Biso   1.000  C
  C260     1.0000 0.13441  0.20982  0.29398  Biso   1.000  C
  C261     1.0000 0.12754  0.26849  0.38779  Biso   1.000  C
  C262     1.0000 0.18269  0.91180  0.36794  Biso   1.000  C
  H171     1.0000 0.24864  0.89664  0.45299  Biso   1.000  H
  C263     1.0000 0.17482  0.93687  0.47168  Biso   1.000  C
  C264     1.0000 0.16089  0.83660  0.01330  Biso   1.000  C
  C265     1.0000 0.31561  0.72841  0.05639  Biso   1.000  C
  C266     1.0000 0.26968  0.76468  0.13231  Biso   1.000  C
  C267     1.0000 0.10988  0.91923  0.92314  Biso   1.000  C
  C268     1.0000 0.11571  0.96503  0.02843  Biso   1.000  C
  H172     1.0000 0.12593  0.04085  0.95635  Biso   1.000  H
  H173     1.0000 0.10219  0.07217  0.37065  Biso   1.000  H
  C269     1.0000 0.13721  0.96509  0.34321  Biso   1.000  C
  C270     1.0000 0.13031  0.99152  0.44624  Biso   1.000  C
  H174     1.0000 0.15146  0.17287  0.27361  Biso   1.000  H
  C271     1.0000 0.09061  0.25890  0.25918  Biso   1.000  C
  C272     1.0000 0.08233  0.31559  0.35370  Biso   1.000  C
  H175     1.0000 0.14053  0.27344  0.43121  Biso   1.000  H
  C273     1.0000 0.19265  0.84688  0.33229  Biso   1.000  C
  C274     1.0000 0.17764  0.89187  0.52483  Biso   1.000  C
  C275     1.0000 0.12371  0.83852  0.94567  Biso   1.000  C
  H176     1.0000 0.17063  0.78022  0.02899  Biso   1.000  H
  C276     1.0000 0.12829  0.88352  0.04965  Biso   1.000  C
  H177     1.0000 0.32610  0.74191  0.02131  Biso   1.000  H
  C277     1.0000 0.33080  0.65241  0.08449  Biso   1.000  C
  C278     1.0000 0.28550  0.68942  0.16181  Biso   1.000  C
  H178     1.0000 0.24874  0.80176  0.14786  Biso   1.000  H
  C279     1.0000 0.07533  0.93148  0.86277  Biso   1.000  C
  C280     1.0000 0.08896  0.01863  0.05953  Biso   1.000  C
  C281     1.0000 0.10055  0.95271  0.28405  Biso   1.000  C
  C282     1.0000 0.08842  0.00037  0.47500  Biso   1.000  C
  H179     1.0000 0.07856  0.25593  0.21572  Biso   1.000  H
  C283     1.0000 0.06494  0.31188  0.28930  Biso   1.000  C
  H180     1.0000 0.06365  0.34988  0.37416  Biso   1.000  H
  C284     1.0000 0.15426  0.83493  0.27211  Biso   1.000  C
  C285     1.0000 0.24271  0.79093  0.35454  Biso   1.000  C
  C286     1.0000 0.13553  0.90221  0.55307  Biso   1.000  C
  H181     1.0000 0.20723  0.85511  0.54151  Biso   1.000  H
  C287     1.0000 0.10287  0.77100  0.90713  Biso   1.000  C
  C288     1.0000 0.11261  0.85430  0.09878  Biso   1.000  C
  H182     1.0000 0.35071  0.61447  0.06829  Biso   1.000  H
  C289     1.0000 0.31558  0.63372  0.13769  Biso   1.000  C
  H183     1.0000 0.27592  0.67630  0.19755  Biso   1.000  H
  H184     1.0000 0.06564  0.98484  0.84769  Biso   1.000  H
  C290     1.0000 0.05479  0.86272  0.82399  Biso   1.000  C
  C291     1.0000 0.08024  0.10881  0.04463  Biso   1.000  C
  C292     1.0000 0.07453  0.98713  0.11025  Biso   1.000  C
  C293     1.0000 0.10753  0.88711  0.24724  Biso   1.000  C
  H185     1.0000 0.07041  0.98892  0.26832  Biso   1.000  H
  H186     1.0000 0.05861  0.03695  0.45842  Biso   1.000  H
  C294     1.0000 0.09091  0.95550  0.52769  Biso   1.000  C
  H187     1.0000 0.03556  0.34561  0.26621  Biso   1.000  H
  O17      1.0000 0.16048  0.77081  0.23474  Biso   1.000  O
  C295     1.0000 0.23460  0.70941  0.37112  Biso   1.000  C
  C296     1.0000 0.29681  0.81717  0.36311  Biso   1.000  C
  C297     1.0000 0.28672  0.80411  0.32649  Biso   1.000  C
  C298     1.0000 0.24851  0.72712  0.39510  Biso   1.000  C
  H188     1.0000 0.13748  0.87287  0.58937  Biso   1.000  H
  C299     1.0000 0.06817  0.78418  0.84652  Biso   1.000  C
  H189     1.0000 0.11216  0.71746  0.92193  Biso   1.000  H
  C300     1.0000 0.08478  0.90438  0.13020  Biso   1.000  C
  H190     1.0000 0.12065  0.79965  0.11156  Biso   1.000  H
  H191     1.0000 0.32588  0.58291  0.15741  Biso   1.000  H
  H192     1.0000 0.03200  0.87058  0.78297  Biso   1.000  H
  C301     1.0000 0.02658  0.14142  0.02098  Biso   1.000  C
  C302     1.0000 0.12595  0.16222  0.05751  Biso   1.000  C
  O18      1.0000 0.04977  0.03503  0.14477  Biso   1.000  O
  C303     1.0000 0.06658  0.87188  0.18369  Biso   1.000  C
  H193     1.0000 0.06251  0.96095  0.54633  Biso   1.000  H
  H194     1.0000 0.19201  0.75032  0.24940  Biso   1.000  H
  H195     1.0000 0.19796  0.69091  0.36545  Biso   1.000  H
  C304     1.0000 0.27911  0.65538  0.39552  Biso   1.000  C
  C305     1.0000 0.29661  0.67673  0.40821  Biso   1.000  C
  H196     1.0000 0.22080  0.71678  0.41402  Biso   1.000  H
  C306     1.0000 0.34231  0.76549  0.38733  Biso   1.000  C
  H197     1.0000 0.30299  0.87120  0.35243  Biso   1.000  H
  C307     1.0000 0.33344  0.75280  0.34082  Biso   1.000  C
  H198     1.0000 0.28375  0.84750  0.29848  Biso   1.000  H
  H199     1.0000 0.05376  0.73912  0.82076  Biso   1.000  H
  C308     1.0000 0.01838  0.22541  0.01208  Biso   1.000  C
  H200     1.0000 0.99550  0.10615  0.01077  Biso   1.000  H
  C309     1.0000 0.11792  0.24639  0.04880  Biso   1.000  C
  H201     1.0000 0.16248  0.14118  0.07227  Biso   1.000  H
  H202     1.0000 0.04168  0.08034  0.12791  Biso   1.000  H
  H203     1.0000 0.06038  0.81277  0.17821  Biso   1.000  H
  H204     1.0000 0.03071  0.89720  0.18181  Biso   1.000  H
  H205     1.0000 0.27284  0.60147  0.40615  Biso   1.000  H
  C310     1.0000 0.33382  0.68478  0.40353  Biso   1.000  C
  C311     1.0000 0.33981  0.68800  0.38171  Biso   1.000  C
  H206     1.0000 0.29982  0.63316  0.43617  Biso   1.000  H
  H207     1.0000 0.37877  0.78461  0.39276  Biso   1.000  H
  H208     1.0000 0.36136  0.76246  0.32208  Biso   1.000  H
  C312     1.0000 0.06322  0.27753  0.02590  Biso   1.000  C
  H209     1.0000 0.98190  0.24646  0.99667  Biso   1.000  H
  H210     1.0000 0.14873  0.28198  0.05817  Biso   1.000  H
  H211     1.0000 0.36469  0.65006  0.41988  Biso   1.000  H
  H212     1.0000 0.37126  0.65352  0.39135  Biso   1.000  H
  H213     1.0000 0.05741  0.33416  0.01995  Biso   1.000  H
  C313     1.0000 0.51639  0.63879  0.71990  Biso   1.000  C
  C314     1.0000 0.45906  0.63093  0.71274  Biso   1.000  C
  H214     1.0000 0.53807  0.59250  0.71836  Biso   1.000  H
  C315     1.0000 0.54054  0.71641  0.72931  Biso   1.000  C
  C316     1.0000 0.42678  0.69908  0.71508  Biso   1.000  C
  H215     1.0000 0.44235  0.57882  0.70632  Biso   1.000  H
  C317     1.0000 0.50750  0.78659  0.73109  Biso   1.000  C
  C318     1.0000 0.60216  0.73788  0.73657  Biso   1.000  C
  C319     1.0000 0.45096  0.77793  0.72444  Biso   1.000  C
  H216     1.0000 0.38855  0.69276  0.71035  Biso   1.000  H
  C320     1.0000 0.54112  0.86644  0.73957  Biso   1.000  C
  C321     1.0000 0.59824  0.79879  0.68323  Biso   1.000  C
  H217     1.0000 0.62516  0.68911  0.73531  Biso   1.000  H
  C322     1.0000 0.62421  0.78641  0.79713  Biso   1.000  C
  H218     1.0000 0.42907  0.82398  0.72613  Biso   1.000  H
  C323     1.0000 0.56504  0.86842  0.68426  Biso   1.000  C
  H219     1.0000 0.51819  0.91521  0.74098  Biso   1.000  H
  C324     1.0000 0.59000  0.85468  0.79971  Biso   1.000  C
  C325     1.0000 0.62096  0.78758  0.63513  Biso   1.000  C
  C326     1.0000 0.67066  0.76611  0.84828  Biso   1.000  C
  C327     1.0000 0.55429  0.92759  0.63639  Biso   1.000  C
  C328     1.0000 0.60055  0.89949  0.85394  Biso   1.000  C
  C329     1.0000 0.61093  0.84459  0.58694  Biso   1.000  C
  H220     1.0000 0.64317  0.74135  0.63504  Biso   1.000  H
  C330     1.0000 0.68046  0.81302  0.90312  Biso   1.000  C
  C331     1.0000 0.71171  0.70001  0.84584  Biso   1.000  C
  C332     1.0000 0.57793  0.91372  0.58755  Biso   1.000  C
  C333     1.0000 0.51698  0.00099  0.63354  Biso   1.000  C
  H221     1.0000 0.57748  0.94430  0.85525  Biso   1.000  H
  C334     1.0000 0.64524  0.87943  0.90715  Biso   1.000  C
  C335     1.0000 0.63737  0.83202  0.53504  Biso   1.000  C
  O19      1.0000 0.72606  0.79483  0.95412  Biso   1.000  O
  C336     1.0000 0.72403  0.63471  0.88827  Biso   1.000  C
  C337     1.0000 0.74164  0.70539  0.80308  Biso   1.000  C
  O20      1.0000 0.56684  0.96608  0.53715  Biso   1.000  O
  C338     1.0000 0.46110  0.99109  0.63199  Biso   1.000  C
  C339     1.0000 0.53726  0.08021  0.63129  Biso   1.000  C
  C340     1.0000 0.65699  0.92889  0.96752  Biso   1.000  C
  C341     1.0000 0.69817  0.86309  0.55443  Biso   1.000  C
  H222     1.0000 0.61533  0.86142  0.49781  Biso   1.000  H
  H223     1.0000 0.63669  0.77366  0.52483  Biso   1.000  H
  H224     1.0000 0.71501  0.78226  0.98372  Biso   1.000  H
  C342     1.0000 0.76455  0.57653  0.88752  Biso   1.000  C
  H225     1.0000 0.70474  0.63019  0.91759  Biso   1.000  H
  C343     1.0000 0.78269  0.64833  0.80294  Biso   1.000  C
  H226     1.0000 0.73387  0.74841  0.77404  Biso   1.000  H
  H227     1.0000 0.55685  0.01120  0.54671  Biso   1.000  H
  H228     1.0000 0.44703  0.93805  0.63358  Biso   1.000  H
  C344     1.0000 0.42644  0.05768  0.62810  Biso   1.000  C
  H229     1.0000 0.57475  0.08801  0.63293  Biso   1.000  H
  C345     1.0000 0.50207  0.14799  0.62665  Biso   1.000  C
  H230     1.0000 0.62252  0.95624  0.96831  Biso   1.000  H
  C346     1.0000 0.70280  0.99332  0.97403  Biso   1.000  C
  H231     1.0000 0.66843  0.89138  0.00292  Biso   1.000  H
  C347     1.0000 0.74309  0.81117  0.58422  Biso   1.000  C
  C348     1.0000 0.70922  0.94702  0.54666  Biso   1.000  C
  C349     1.0000 0.79442  0.58371  0.84472  Biso   1.000  C
  H232     1.0000 0.77180  0.53252  0.91558  Biso   1.000  H
  H233     1.0000 0.80264  0.65352  0.77423  Biso   1.000  H
  C350     1.0000 0.44684  0.13691  0.62558  Biso   1.000  C
  H234     1.0000 0.38916  0.04989  0.62721  Biso   1.000  H
  H235     1.0000 0.51573  0.20109  0.62431  Biso   1.000  H
  C351     1.0000 0.75952  0.97419  0.00269  Biso   1.000  C
  C352     1.0000 0.68956  0.07229  0.94869  Biso   1.000  C
  O21      1.0000 0.73127  0.73002  0.59284  Biso   1.000  O
  C353     1.0000 0.79943  0.84019  0.60450  Biso   1.000  C
  C354     1.0000 0.76392  0.97580  0.56713  Biso   1.000  C
  H236     1.0000 0.67962  0.98298  0.52769  Biso   1.000  H
  H237     1.0000 0.82208  0.54509  0.84439  Biso   1.000  H
  H238     1.0000 0.42335  0.18240  0.62309  Biso   1.000  H
  H239     1.0000 0.76935  0.92226  0.02044  Biso   1.000  H
  C355     1.0000 0.80108  0.03101  0.00508  Biso   1.000  C
  O22      1.0000 0.63338  0.08900  0.92021  Biso   1.000  O
  C356     1.0000 0.73122  0.13158  0.95159  Biso   1.000  C
  H240     1.0000 0.76056  0.70589  0.61185  Biso   1.000  H
  C357     1.0000 0.80852  0.92251  0.59415  Biso   1.000  C
  C358     1.0000 0.84637  0.78573  0.64131  Biso   1.000  C
  C359     1.0000 0.78298  0.06542  0.56511  Biso   1.000  C
  C360     1.0000 0.78737  0.11042  0.98082  Biso   1.000  C
  C361     1.0000 0.86453  0.01560  0.02793  Biso   1.000  C
  H241     1.0000 0.63032  0.12929  0.89722  Biso   1.000  H
  C362     1.0000 0.71509  0.21452  0.92068  Biso   1.000  C
  C363     1.0000 0.86621  0.96584  0.61152  Biso   1.000  C
  C364     1.0000 0.86565  0.79018  0.70604  Biso   1.000  C
  C365     1.0000 0.87252  0.73151  0.61223  Biso   1.000  C
  C366     1.0000 0.81737  0.08820  0.63209  Biso   1.000  C
  H242     1.0000 0.75142  0.10336  0.54703  Biso   1.000  H
  C367     1.0000 0.82524  0.06313  0.52835  Biso   1.000  C
  C368     1.0000 0.83916  0.16340  0.98672  Biso   1.000  C
  H243     1.0000 0.87412  0.95921  0.04367  Biso   1.000  H
  C369     1.0000 0.88434  0.03503  0.97159  Biso   1.000  C
  C370     1.0000 0.89017  0.08083  0.07688  Biso   1.000  C
  C371     1.0000 0.68444  0.27159  0.94363  Biso   1.000  C
  C372     1.0000 0.73038  0.23532  0.86771  Biso   1.000  C
  H244     1.0000 0.89783  0.92783  0.62937  Biso   1.000  H
  C373     1.0000 0.86281  0.03491  0.65681  Biso   1.000  C
  C374     1.0000 0.86975  0.00848  0.55378  Biso   1.000  C
  H245     1.0000 0.84860  0.82713  0.72641  Biso   1.000  H
  C375     1.0000 0.90945  0.74110  0.74084  Biso   1.000  C
  C376     1.0000 0.91773  0.68441  0.64632  Biso   1.000  C
  H246     1.0000 0.85952  0.72656  0.56881  Biso   1.000  H
  C377     1.0000 0.80740  0.15312  0.66773  Biso   1.000  C
  C378     1.0000 0.82242  0.10813  0.47519  Biso   1.000  C
  H247     1.0000 0.82942  0.21978  0.97103  Biso   1.000  H
  C379     1.0000 0.87177  0.11648  0.95038  Biso   1.000  C
  C380     1.0000 0.87635  0.16148  0.05435  Biso   1.000  C
  C381     1.0000 0.91110  0.98143  0.94049  Biso   1.000  C
  C382     1.0000 0.92472  0.06852  0.13725  Biso   1.000  C
  H248     1.0000 0.67396  0.25809  0.97871  Biso   1.000  H
  C383     1.0000 0.66926  0.34759  0.91553  Biso   1.000  C
  C384     1.0000 0.71456  0.31058  0.83821  Biso   1.000  C
  H249     1.0000 0.75132  0.19824  0.85216  Biso   1.000  H
  C385     1.0000 0.89951  0.04729  0.71597  Biso   1.000  C
  C386     1.0000 0.91164  0.99963  0.52502  Biso   1.000  C
  H250     1.0000 0.92145  0.74407  0.78430  Biso   1.000  H
  C387     1.0000 0.93511  0.68812  0.71072  Biso   1.000  C
  H251     1.0000 0.93641  0.65012  0.62586  Biso   1.000  H
  C388     1.0000 0.84580  0.16507  0.72791  Biso   1.000  C
  C389     1.0000 0.75731  0.20914  0.64548  Biso   1.000  C
  C390     1.0000 0.86453  0.09779  0.44695  Biso   1.000  C
  H252     1.0000 0.79282  0.14489  0.45851  Biso   1.000  H
  C391     1.0000 0.88745  0.14570  0.90125  Biso   1.000  C
  C392     1.0000 0.89719  0.22900  0.09289  Biso   1.000  C
  C393     1.0000 0.91977  0.89119  0.95539  Biso   1.000  C
  C394     1.0000 0.92553  0.01294  0.88977  Biso   1.000  C
  H253     1.0000 0.93441  0.01516  0.15233  Biso   1.000  H
  C395     1.0000 0.94527  0.13728  0.17603  Biso   1.000  C
  H254     1.0000 0.64935  0.38553  0.93174  Biso   1.000  H
  C396     1.0000 0.68444  0.36628  0.86233  Biso   1.000  C
  H255     1.0000 0.72414  0.32370  0.80247  Biso   1.000  H
  C397     1.0000 0.89249  0.11289  0.75278  Biso   1.000  C
  H256     1.0000 0.92965  0.01108  0.73170  Biso   1.000  H
  H257     1.0000 0.94145  0.96305  0.54160  Biso   1.000  H
  C398     1.0000 0.90911  0.04450  0.47233  Biso   1.000  C
  H258     1.0000 0.96450  0.65445  0.73381  Biso   1.000  H
  O23      1.0000 0.83958  0.22919  0.76528  Biso   1.000  O
  C399     1.0000 0.76541  0.29059  0.62890  Biso   1.000  C
  C400     1.0000 0.70324  0.18283  0.63691  Biso   1.000  C
  C401     1.0000 0.71333  0.19589  0.67353  Biso   1.000  C
  C402     1.0000 0.75154  0.27288  0.60492  Biso   1.000  C
  H259     1.0000 0.86257  0.12713  0.41065  Biso   1.000  H
  C403     1.0000 0.91524  0.09562  0.86982  Biso   1.000  C
  H260     1.0000 0.87941  0.20035  0.88846  Biso   1.000  H
  C404     1.0000 0.93189  0.21582  0.15350  Biso   1.000  C
  H261     1.0000 0.88790  0.28254  0.07810  Biso   1.000  H
  C405     1.0000 0.97344  0.85858  0.97904  Biso   1.000  C
  C406     1.0000 0.87411  0.83778  0.94251  Biso   1.000  C
  O24      1.0000 0.95028  0.96497  0.85525  Biso   1.000  O
  H262     1.0000 0.96805  0.12942  0.21705  Biso   1.000  H
  H263     1.0000 0.67418  0.41709  0.84261  Biso   1.000  H
  C407     1.0000 0.93348  0.12812  0.81633  Biso   1.000  C
  H264     1.0000 0.93755  0.03905  0.45369  Biso   1.000  H
  H265     1.0000 0.80805  0.24968  0.75062  Biso   1.000  H
  H266     1.0000 0.80210  0.30909  0.63457  Biso   1.000  H
  C408     1.0000 0.72091  0.34462  0.60450  Biso   1.000  C
  C409     1.0000 0.70344  0.32333  0.59181  Biso   1.000  C
  H267     1.0000 0.77922  0.28322  0.58600  Biso   1.000  H
  C410     1.0000 0.65774  0.23457  0.61270  Biso   1.000  C
  H268     1.0000 0.69706  0.12880  0.64759  Biso   1.000  H
  C411     1.0000 0.66662  0.24720  0.65920  Biso   1.000  C
  H269     1.0000 0.71631  0.15250  0.70154  Biso   1.000  H
  H270     1.0000 0.94630  0.26088  0.17926  Biso   1.000  H
  C412     1.0000 0.98164  0.77459  0.98794  Biso   1.000  C
  H271     1.0000 0.00456  0.89385  0.98925  Biso   1.000  H
  C413     1.0000 0.88214  0.75361  0.95122  Biso   1.000  C
  H272     1.0000 0.83757  0.85882  0.92775  Biso   1.000  H
  H273     1.0000 0.95838  0.91966  0.87211  Biso   1.000  H
  H274     1.0000 0.93968  0.18729  0.82181  Biso   1.000  H
  H275     1.0000 0.96930  0.10280  0.81821  Biso   1.000  H
  H276     1.0000 0.72718  0.39853  0.59387  Biso   1.000  H
  C414     1.0000 0.66623  0.31522  0.59649  Biso   1.000  C
  C415     1.0000 0.66024  0.31200  0.61832  Biso   1.000  C
  H277     1.0000 0.70024  0.36684  0.56385  Biso   1.000  H
  H278     1.0000 0.62128  0.21539  0.60726  Biso   1.000  H
  H279     1.0000 0.63865  0.23754  0.67794  Biso   1.000  H
  C416     1.0000 0.93684  0.72254  0.97412  Biso   1.000  C
  H280     1.0000 0.01816  0.75354  0.00335  Biso   1.000  H
  H281     1.0000 0.85129  0.71802  0.94185  Biso   1.000  H
  H282     1.0000 0.63536  0.34994  0.58015  Biso   1.000  H
  H283     1.0000 0.62879  0.34648  0.60867  Biso   1.000  H
  H284     1.0000 0.94264  0.66584  0.98007  Biso   1.000  H
  Ne1      1.0000 0.25581  0.01863  0.23229  Biso   1.000  Ne
  He1      1.0000 0.33692  0.98369  0.37585  Biso   1.000  He
  He2      1.0000 0.24031  0.19602  0.29372  Biso   1.000  He
  He3      1.0000 0.36374  0.90363  0.22384  Biso   1.000  He
  He4      1.0000 0.12649  0.26820  0.16329  Biso   1.000  He
  He5      1.0000 0.19293  0.81465  0.16818  Biso   1.000  He
  Ar1      1.0000 0.24423  0.03320  0.20925  Biso   1.000  Ar
  Ne2      1.0000 0.74422  0.51862  0.26772  Biso   1.000  Ne
  He6      1.0000 0.82942  0.19071  0.35984  Biso   1.000  He
  He7      1.0000 0.87341  0.76784  0.33664  Biso   1.000  He
  He8      1.0000 0.61374  0.35162  0.27225  Biso   1.000  He
  He9      1.0000 0.75962  0.69409  0.20662  Biso   1.000  He
  He10     1.0000 0.66347  0.48419  0.12481  Biso   1.000  He
  Ar2      1.0000 0.75628  0.53368  0.29018  Biso   1.000  Ar
  Ne3      1.0000 0.25583  0.48138  0.73230  Biso   1.000  Ne
  He11     1.0000 0.33540  0.51421  0.87312  Biso   1.000  He
  He12     1.0000 0.38944  0.65525  0.72816  Biso   1.000  He
  He13     1.0000 0.21194  0.19529  0.80395  Biso   1.000  He
  He14     1.0000 0.11746  0.34375  0.67504  Biso   1.000  He
  He15     1.0000 0.19357  0.68208  0.66932  Biso   1.000  He
  Ar3      1.0000 0.24388  0.46653  0.71004  Biso   1.000  Ar
  Ne4      1.0000 0.74424  0.98138  0.76773  Biso   1.000  Ne
  He16     1.0000 0.61102  0.15450  0.77191  Biso   1.000  He
  He17     1.0000 0.87386  0.73098  0.83695  Biso   1.000  He
  He18     1.0000 0.81354  0.22426  0.84511  Biso   1.000  He
  He19     1.0000 0.75965  0.80706  0.70684  Biso   1.000  He
  He20     1.0000 0.66425  0.01479  0.62614  Biso   1.000  He
  Ar4      1.0000 0.75583  0.96684  0.79082  Biso   1.000  Ar
