data_image0
_cell_length_a       36.665
_cell_length_b       22.696
_cell_length_c       21.875
_cell_angle_alpha    90
_cell_angle_beta     101.61
_cell_angle_gamma    90

_symmetry_space_group_name_H-M    "P 1"
_symmetry_int_tables_number       1

loop_
  _symmetry_equiv_pos_as_xyz
  'x, y, z'

loop_
  _atom_site_label
  _atom_site_occupancy
  _atom_site_fract_x
  _atom_site_fract_y
  _atom_site_fract_z
  _atom_site_thermal_displace_type
  _atom_site_B_iso_or_equiv
  _atom_site_type_symbol
  N1       1.0000 0.60830  0.52683  0.56521  Biso   1.000  N
  C1       1.0000 0.60305  0.56662  0.60376  Biso   1.000  C
  C2       1.0000 0.63059  0.54199  0.51966  Biso   1.000  C
  C3       1.0000 0.57924  0.55671  0.64963  Biso   1.000  C
  H1       1.0000 0.61488  0.60381  0.60278  Biso   1.000  H
  C4       1.0000 0.66402  0.49921  0.52750  Biso   1.000  C
  C5       1.0000 0.60659  0.53710  0.45442  Biso   1.000  C
  H2       1.0000 0.63990  0.58332  0.52699  Biso   1.000  H
  C6       1.0000 0.56281  0.50163  0.65407  Biso   1.000  C
  C7       1.0000 0.57210  0.60279  0.68716  Biso   1.000  C
  N2       1.0000 0.68839  0.50996  0.58784  Biso   1.000  N
  H3       1.0000 0.65479  0.45770  0.52582  Biso   1.000  H
  C8       1.0000 0.68654  0.50842  0.47659  Biso   1.000  C
  C9       1.0000 0.62972  0.54591  0.40359  Biso   1.000  C
  H4       1.0000 0.58661  0.56719  0.44928  Biso   1.000  H
  H5       1.0000 0.59460  0.49780  0.44928  Biso   1.000  H
  C10      1.0000 0.53870  0.49264  0.69472  Biso   1.000  C
  H6       1.0000 0.56828  0.46991  0.62901  Biso   1.000  H
  C11      1.0000 0.54787  0.59460  0.72930  Biso   1.000  C
  H7       1.0000 0.58348  0.63998  0.68450  Biso   1.000  H
  C12      1.0000 0.69849  0.46471  0.62173  Biso   1.000  C
  H8       1.0000 0.70671  0.47872  0.48121  Biso   1.000  H
  H9       1.0000 0.69820  0.54798  0.48121  Biso   1.000  H
  C13      1.0000 0.66136  0.50282  0.41181  Biso   1.000  C
  H10      1.0000 0.61360  0.54049  0.36201  Biso   1.000  H
  H11      1.0000 0.63970  0.58658  0.40602  Biso   1.000  H
  C14      1.0000 0.52087  0.43475  0.69593  Biso   1.000  C
  C15      1.0000 0.53120  0.53952  0.73271  Biso   1.000  C
  C16      1.0000 0.53934  0.64351  0.76911  Biso   1.000  C
  C17      1.0000 0.72350  0.46616  0.68305  Biso   1.000  C
  H12      1.0000 0.68908  0.42752  0.60609  Biso   1.000  H
  H13      1.0000 0.67631  0.51009  0.37951  Biso   1.000  H
  H14      1.0000 0.65130  0.46228  0.40611  Biso   1.000  H
  N3       1.0000 0.49699  0.42281  0.72963  Biso   1.000  N
  H15      1.0000 0.52738  0.40439  0.67022  Biso   1.000  H
  H16      1.0000 0.51479  0.53371  0.76071  Biso   1.000  H
  N4       1.0000 0.55498  0.69290  0.77013  Biso   1.000  N
  H17      1.0000 0.52159  0.63729  0.79459  Biso   1.000  H
  C18      1.0000 0.73910  0.51855  0.71217  Biso   1.000  C
  C19      1.0000 0.73265  0.41267  0.71343  Biso   1.000  C
  C20      1.0000 0.48015  0.36443  0.72178  Biso   1.000  C
  C21      1.0000 0.54353  0.73850  0.81018  Biso   1.000  C
  C22      1.0000 0.76288  0.51674  0.76939  Biso   1.000  C
  H18      1.0000 0.73308  0.55538  0.69201  Biso   1.000  H
  C23      1.0000 0.75666  0.41073  0.77233  Biso   1.000  C
  H19      1.0000 0.72260  0.37711  0.69420  Biso   1.000  H
  C24      1.0000 0.43799  0.37174  0.70167  Biso   1.000  C
  C25      1.0000 0.48983  0.33045  0.78381  Biso   1.000  C
  H20      1.0000 0.48990  0.34248  0.68879  Biso   1.000  H
  H21      1.0000 0.52668  0.72070  0.83589  Biso   1.000  H
  C26      1.0000 0.52270  0.78688  0.76887  Biso   1.000  C
  C27      1.0000 0.57806  0.76384  0.85330  Biso   1.000  C
  C28      1.0000 0.77165  0.46277  0.79991  Biso   1.000  C
  C29      1.0000 0.77905  0.57327  0.79613  Biso   1.000  C
  C30      1.0000 0.76599  0.35363  0.80364  Biso   1.000  C
  C31      1.0000 0.41826  0.31186  0.69588  Biso   1.000  C
  H22      1.0000 0.43218  0.39240  0.66097  Biso   1.000  H
  H23      1.0000 0.42868  0.39619  0.73271  Biso   1.000  H
  C32      1.0000 0.46939  0.27111  0.77895  Biso   1.000  C
  N5       1.0000 0.53023  0.31878  0.79888  Biso   1.000  N
  H24      1.0000 0.48270  0.35451  0.81778  Biso   1.000  H
  H25      1.0000 0.49969  0.77049  0.74302  Biso   1.000  H
  H26      1.0000 0.53849  0.80199  0.74050  Biso   1.000  H
  C33      1.0000 0.51258  0.83821  0.80929  Biso   1.000  C
  N6       1.0000 0.59603  0.71828  0.89642  Biso   1.000  N
  C34      1.0000 0.56698  0.81442  0.89208  Biso   1.000  C
  H27      1.0000 0.59589  0.77860  0.82782  Biso   1.000  H
  H28      1.0000 0.78789  0.46180  0.83958  Biso   1.000  H
  N7       1.0000 0.80097  0.57786  0.84784  Biso   1.000  N
  H29      1.0000 0.77241  0.60821  0.77261  Biso   1.000  H
  N8       1.0000 0.75241  0.30613  0.77895  Biso   1.000  N
  H30      1.0000 0.78248  0.35249  0.84308  Biso   1.000  H
  C35      1.0000 0.42725  0.27780  0.75641  Biso   1.000  C
  H31      1.0000 0.39100  0.31799  0.68398  Biso   1.000  H
  H32      1.0000 0.42610  0.28860  0.66237  Biso   1.000  H
  H33      1.0000 0.47930  0.24529  0.74969  Biso   1.000  H
  H34      1.0000 0.47439  0.25181  0.82040  Biso   1.000  H
  C36      1.0000 0.54773  0.33742  0.85124  Biso   1.000  C
  H35      1.0000 0.49998  0.86980  0.78161  Biso   1.000  H
  H36      1.0000 0.49508  0.82380  0.83482  Biso   1.000  H
  C37      1.0000 0.54599  0.86262  0.85059  Biso   1.000  C
  C38      1.0000 0.63047  0.71070  0.89801  Biso   1.000  C
  H37      1.0000 0.55108  0.79891  0.92008  Biso   1.000  H
  H38      1.0000 0.58968  0.83138  0.91850  Biso   1.000  H
  C39      1.0000 0.81492  0.63756  0.86679  Biso   1.000  C
  C40      1.0000 0.76343  0.25176  0.81349  Biso   1.000  C
  H39      1.0000 0.41559  0.23828  0.75021  Biso   1.000  H
  H40      1.0000 0.41668  0.29860  0.78861  Biso   1.000  H
  C41      1.0000 0.58745  0.32966  0.87425  Biso   1.000  C
  H41      1.0000 0.53400  0.35768  0.87710  Biso   1.000  H
  H42      1.0000 0.53838  0.89399  0.87701  Biso   1.000  H
  H43      1.0000 0.56248  0.88051  0.82511  Biso   1.000  H
  C42      1.0000 0.65463  0.66884  0.93926  Biso   1.000  C
  H44      1.0000 0.64158  0.73370  0.87038  Biso   1.000  H
  C43      1.0000 0.80861  0.65082  0.93217  Biso   1.000  C
  C44      1.0000 0.85598  0.64016  0.86399  Biso   1.000  C
  H45      1.0000 0.80099  0.66699  0.83692  Biso   1.000  H
  C45      1.0000 0.72890  0.21678  0.82054  Biso   1.000  C
  H46      1.0000 0.77820  0.26172  0.85582  Biso   1.000  H
  C46      1.0000 0.78783  0.21585  0.77751  Biso   1.000  C
  C47      1.0000 0.61124  0.30199  0.84028  Biso   1.000  C
  C48      1.0000 0.60283  0.35169  0.93422  Biso   1.000  C
  C49      1.0000 0.64136  0.63412  0.98299  Biso   1.000  C
  C50      1.0000 0.69146  0.66417  0.93478  Biso   1.000  C
  N9       1.0000 0.76836  0.65434  0.92998  Biso   1.000  N
  H47      1.0000 0.81960  0.61848  0.96120  Biso   1.000  H
  C51      1.0000 0.82628  0.70942  0.95597  Biso   1.000  C
  C52      1.0000 0.87347  0.69929  0.88723  Biso   1.000  C
  H48      1.0000 0.85879  0.63381  0.82040  Biso   1.000  H
  H49      1.0000 0.86939  0.60799  0.88979  Biso   1.000  H
  N10      1.0000 0.70680  0.25088  0.85587  Biso   1.000  N
  C53      1.0000 0.74125  0.15932  0.85479  Biso   1.000  C
  H50      1.0000 0.71369  0.20770  0.77830  Biso   1.000  H
  H51      1.0000 0.81020  0.23898  0.77391  Biso   1.000  H
  H52      1.0000 0.77370  0.20748  0.73481  Biso   1.000  H
  C54      1.0000 0.79989  0.15738  0.81139  Biso   1.000  C
  C55      1.0000 0.64884  0.29485  0.86497  Biso   1.000  C
  H53      1.0000 0.60140  0.28789  0.79940  Biso   1.000  H
  C56      1.0000 0.64084  0.34623  0.95914  Biso   1.000  C
  H54      1.0000 0.58710  0.37051  0.95788  Biso   1.000  H
  C57      1.0000 0.66473  0.59341  0.01888  Biso   1.000  C
  H55      1.0000 0.61640  0.63831  0.98822  Biso   1.000  H
  C58      1.0000 0.71582  0.62540  0.97212  Biso   1.000  C
  H56      1.0000 0.70048  0.68809  0.90547  Biso   1.000  H
  C59      1.0000 0.75513  0.62284  0.96852  Biso   1.000  C
  H57      1.0000 0.82379  0.71510  0.99979  Biso   1.000  H
  H58      1.0000 0.81278  0.74189  0.93082  Biso   1.000  H
  C60      1.0000 0.86778  0.71220  0.95252  Biso   1.000  C
  H59      1.0000 0.90048  0.69841  0.88709  Biso   1.000  H
  H60      1.0000 0.86208  0.73110  0.85871  Biso   1.000  H
  C61      1.0000 0.67351  0.26287  0.83076  Biso   1.000  C
  C62      1.0000 0.76569  0.12222  0.82119  Biso   1.000  C
  H61      1.0000 0.75518  0.16849  0.89740  Biso   1.000  H
  H62      1.0000 0.71900  0.13628  0.85890  Biso   1.000  H
  H63      1.0000 0.81420  0.13368  0.78628  Biso   1.000  H
  H64      1.0000 0.81629  0.16571  0.85232  Biso   1.000  H
  C63      1.0000 0.66357  0.31768  0.92466  Biso   1.000  C
  C64      1.0000 0.65780  0.36879  0.02154  Biso   1.000  C
  C65      1.0000 0.64948  0.55411  0.06149  Biso   1.000  C
  C66      1.0000 0.70170  0.58944  0.01328  Biso   1.000  C
  H65      1.0000 0.77128  0.59702  0.99559  Biso   1.000  H
  H66      1.0000 0.87758  0.75189  0.96530  Biso   1.000  H
  H67      1.0000 0.88190  0.68320  0.98192  Biso   1.000  H
  H68      1.0000 0.66420  0.25101  0.78889  Biso   1.000  H
  H69      1.0000 0.75110  0.10949  0.78031  Biso   1.000  H
  H70      1.0000 0.77400  0.08649  0.84611  Biso   1.000  H
  H71      1.0000 0.68939  0.31349  0.94169  Biso   1.000  H
  N11      1.0000 0.63941  0.39505  0.05650  Biso   1.000  N
  H72      1.0000 0.68380  0.36341  0.03619  Biso   1.000  H
  N12      1.0000 0.66838  0.51304  0.09108  Biso   1.000  N
  H73      1.0000 0.62461  0.55988  0.06658  Biso   1.000  H
  H74      1.0000 0.71761  0.56168  0.03811  Biso   1.000  H
  C67      1.0000 0.65889  0.41131  0.11875  Biso   1.000  C
  C68      1.0000 0.65071  0.47625  0.13154  Biso   1.000  C
  C69      1.0000 0.64585  0.37103  0.16598  Biso   1.000  C
  H75      1.0000 0.68631  0.40611  0.12179  Biso   1.000  H
  H76      1.0000 0.62322  0.48339  0.12291  Biso   1.000  H
  C70      1.0000 0.66782  0.49158  0.19930  Biso   1.000  C
  C71      1.0000 0.66271  0.38822  0.23239  Biso   1.000  C
  H77      1.0000 0.61840  0.37289  0.15977  Biso   1.000  H
  H78      1.0000 0.65283  0.32988  0.15870  Biso   1.000  H
  H79      1.0000 0.66181  0.53300  0.20761  Biso   1.000  H
  H80      1.0000 0.69520  0.48802  0.20588  Biso   1.000  H
  C72      1.0000 0.65331  0.45078  0.24560  Biso   1.000  C
  H81      1.0000 0.65331  0.36152  0.26151  Biso   1.000  H
  H82      1.0000 0.69011  0.38368  0.23958  Biso   1.000  H
  H83      1.0000 0.66501  0.46140  0.28900  Biso   1.000  H
  H84      1.0000 0.62602  0.45519  0.24070  Biso   1.000  H
  C73      1.0000 0.51334  0.47035  0.47715  Biso   1.000  C
  C74      1.0000 0.53641  0.41417  0.48233  Biso   1.000  C
  C75      1.0000 0.48664  0.47035  0.52283  Biso   1.000  C
  H85      1.0000 0.49880  0.47431  0.43398  Biso   1.000  H
  H86      1.0000 0.53021  0.50471  0.48592  Biso   1.000  H
  C76      1.0000 0.51223  0.35848  0.47542  Biso   1.000  C
  H87      1.0000 0.55369  0.41342  0.52339  Biso   1.000  H
  H88      1.0000 0.55149  0.41430  0.44961  Biso   1.000  H
  C77      1.0000 0.46357  0.41417  0.51765  Biso   1.000  C
  H89      1.0000 0.50121  0.47431  0.56600  Biso   1.000  H
  H90      1.0000 0.46980  0.50471  0.51411  Biso   1.000  H
  C78      1.0000 0.48775  0.35848  0.52456  Biso   1.000  C
  N13      1.0000 0.53636  0.30635  0.48377  Biso   1.000  N
  H91      1.0000 0.49599  0.35760  0.43281  Biso   1.000  H
  H92      1.0000 0.44629  0.41342  0.47659  Biso   1.000  H
  H93      1.0000 0.44850  0.41430  0.55042  Biso   1.000  H
  N14      1.0000 0.46364  0.30635  0.51621  Biso   1.000  N
  H94      1.0000 0.50400  0.35760  0.56722  Biso   1.000  H
  C79      1.0000 0.53051  0.26815  0.44140  Biso   1.000  C
  C80      1.0000 0.46947  0.26815  0.55858  Biso   1.000  C
  C81      1.0000 0.55360  0.21480  0.44200  Biso   1.000  C
  H95      1.0000 0.51019  0.27379  0.40728  Biso   1.000  H
  C82      1.0000 0.44638  0.21480  0.55798  Biso   1.000  C
  H96      1.0000 0.48979  0.27379  0.59270  Biso   1.000  H
  C83      1.0000 0.54893  0.18052  0.38829  Biso   1.000  C
  C84      1.0000 0.58118  0.19973  0.49381  Biso   1.000  C
  C85      1.0000 0.41880  0.19973  0.50617  Biso   1.000  C
  C86      1.0000 0.45105  0.18052  0.61169  Biso   1.000  C
  C87      1.0000 0.57192  0.13187  0.38493  Biso   1.000  C
  H97      1.0000 0.52989  0.19021  0.35352  Biso   1.000  H
  H98      1.0000 0.58409  0.22242  0.53100  Biso   1.000  H
  C88      1.0000 0.60426  0.15157  0.49091  Biso   1.000  C
  C89      1.0000 0.39572  0.15157  0.50907  Biso   1.000  C
  H99      1.0000 0.41589  0.22242  0.46898  Biso   1.000  H
  C90      1.0000 0.42806  0.13187  0.61505  Biso   1.000  C
  H100     1.0000 0.47010  0.19021  0.64651  Biso   1.000  H
  C91      1.0000 0.56802  0.09649  0.32720  Biso   1.000  C
  C92      1.0000 0.59978  0.11773  0.43612  Biso   1.000  C
  C93      1.0000 0.63378  0.13720  0.54552  Biso   1.000  C
  C94      1.0000 0.36620  0.13720  0.45451  Biso   1.000  C
  C95      1.0000 0.40020  0.11773  0.56390  Biso   1.000  C
  C96      1.0000 0.43196  0.09649  0.67278  Biso   1.000  C
  N15      1.0000 0.54278  0.10641  0.27983  Biso   1.000  N
  H101     1.0000 0.58510  0.06530  0.32570  Biso   1.000  H
  H102     1.0000 0.61581  0.08521  0.43398  Biso   1.000  H
  N16      1.0000 0.65569  0.09385  0.54449  Biso   1.000  N
  H103     1.0000 0.63650  0.16082  0.58201  Biso   1.000  H
  N17      1.0000 0.34429  0.09385  0.45554  Biso   1.000  N
  H104     1.0000 0.36349  0.16082  0.41802  Biso   1.000  H
  H105     1.0000 0.38420  0.08521  0.56600  Biso   1.000  H
  N18      1.0000 0.45720  0.10641  0.72015  Biso   1.000  N
  H106     1.0000 0.41490  0.06530  0.67428  Biso   1.000  H
  C97      1.0000 0.54294  0.07072  0.22392  Biso   1.000  C
  C98      1.0000 0.68512  0.08513  0.59942  Biso   1.000  C
  C99      1.0000 0.31487  0.08513  0.40061  Biso   1.000  C
  C100     1.0000 0.45705  0.07072  0.77611  Biso   1.000  C
  C101     1.0000 0.50459  0.04225  0.20096  Biso   1.000  C
  C102     1.0000 0.55171  0.11178  0.17319  Biso   1.000  C
  H107     1.0000 0.56249  0.03939  0.23349  Biso   1.000  H
  C103     1.0000 0.68577  0.02066  0.61986  Biso   1.000  C
  H108     1.0000 0.68058  0.11112  0.63409  Biso   1.000  H
  C104     1.0000 0.72237  0.10165  0.58187  Biso   1.000  C
  C105     1.0000 0.27764  0.10165  0.41816  Biso   1.000  C
  H109     1.0000 0.31940  0.11112  0.36589  Biso   1.000  H
  C106     1.0000 0.31423  0.02066  0.38012  Biso   1.000  C
  C107     1.0000 0.49540  0.04225  0.79907  Biso   1.000  C
  C108     1.0000 0.44830  0.11178  0.82679  Biso   1.000  C
  H110     1.0000 0.43748  0.03939  0.76649  Biso   1.000  H
  N19      1.0000 0.49650  0.00106  0.24856  Biso   1.000  N
  H111     1.0000 0.48511  0.07371  0.19340  Biso   1.000  H
  C109     1.0000 0.50394  0.00850  0.14038  Biso   1.000  C
  C110     1.0000 0.55087  0.07887  0.11168  Biso   1.000  C
  H112     1.0000 0.57660  0.12941  0.18761  Biso   1.000  H
  H113     1.0000 0.53320  0.14421  0.16600  Biso   1.000  H
  N20      1.0000 0.65120  0.00767  0.64109  Biso   1.000  N
  C111     1.0000 0.71843  0.00916  0.67381  Biso   1.000  C
  H114     1.0000 0.68778  0.99458  0.58388  Biso   1.000  H
  H115     1.0000 0.72530  0.07891  0.54449  Biso   1.000  H
  H116     1.0000 0.72208  0.14399  0.57109  Biso   1.000  H
  C112     1.0000 0.75542  0.08918  0.63498  Biso   1.000  C
  C113     1.0000 0.24459  0.08918  0.36505  Biso   1.000  C
  H117     1.0000 0.27468  0.07891  0.45549  Biso   1.000  H
  H118     1.0000 0.27790  0.14399  0.42889  Biso   1.000  H
  C114     1.0000 0.28155  0.00916  0.32622  Biso   1.000  C
  N21      1.0000 0.34878  0.00767  0.35889  Biso   1.000  N
  H119     1.0000 0.31220  0.99458  0.41610  Biso   1.000  H
  N22      1.0000 0.50348  0.00106  0.75142  Biso   1.000  N
  H120     1.0000 0.51490  0.07371  0.80658  Biso   1.000  H
  C115     1.0000 0.49604  0.00850  0.85960  Biso   1.000  C
  C116     1.0000 0.44914  0.07887  0.88835  Biso   1.000  C
  H121     1.0000 0.42339  0.12941  0.81242  Biso   1.000  H
  H122     1.0000 0.46678  0.14421  0.83398  Biso   1.000  H
  C117     1.0000 0.46420  0.00551  0.25962  Biso   1.000  C
  C118     1.0000 0.51405  0.04882  0.08984  Biso   1.000  C
  H123     1.0000 0.47881  0.99172  0.12531  Biso   1.000  H
  H124     1.0000 0.52191  0.97541  0.14850  Biso   1.000  H
  H125     1.0000 0.55531  0.10711  0.07938  Biso   1.000  H
  H126     1.0000 0.57101  0.04908  0.11770  Biso   1.000  H
  C119     1.0000 0.63288  0.96317  0.61776  Biso   1.000  C
  C120     1.0000 0.75553  0.02648  0.65640  Biso   1.000  C
  H127     1.0000 0.71498  0.03212  0.71068  Biso   1.000  H
  H128     1.0000 0.71908  0.96691  0.68492  Biso   1.000  H
  H129     1.0000 0.77879  0.09751  0.62070  Biso   1.000  H
  H130     1.0000 0.75419  0.11579  0.67040  Biso   1.000  H
  H131     1.0000 0.22118  0.09751  0.37928  Biso   1.000  H
  H132     1.0000 0.24579  0.11579  0.32958  Biso   1.000  H
  C121     1.0000 0.24444  0.02648  0.34358  Biso   1.000  C
  H133     1.0000 0.28500  0.03212  0.28930  Biso   1.000  H
  H134     1.0000 0.28090  0.96691  0.31511  Biso   1.000  H
  C122     1.0000 0.36710  0.96317  0.38222  Biso   1.000  C
  C123     1.0000 0.53578  0.00551  0.74041  Biso   1.000  C
  C124     1.0000 0.48596  0.04882  0.91014  Biso   1.000  C
  H135     1.0000 0.52120  0.99172  0.87472  Biso   1.000  H
  H136     1.0000 0.47810  0.97541  0.85148  Biso   1.000  H
  H137     1.0000 0.44470  0.10711  0.92060  Biso   1.000  H
  H138     1.0000 0.42899  0.04908  0.88228  Biso   1.000  H
  C125     1.0000 0.45005  0.96691  0.30419  Biso   1.000  C
  H139     1.0000 0.44819  0.03512  0.23829  Biso   1.000  H
  H140     1.0000 0.51501  0.02520  0.05222  Biso   1.000  H
  H141     1.0000 0.49440  0.07900  0.07822  Biso   1.000  H
  C126     1.0000 0.59763  0.94651  0.63605  Biso   1.000  C
  H142     1.0000 0.64200  0.93990  0.58789  Biso   1.000  H
  H143     1.0000 0.77600  0.02102  0.69308  Biso   1.000  H
  H144     1.0000 0.76039  0.00022  0.62280  Biso   1.000  H
  H145     1.0000 0.22400  0.02102  0.30690  Biso   1.000  H
  H146     1.0000 0.23959  0.00022  0.37718  Biso   1.000  H
  H147     1.0000 0.35800  0.93990  0.41209  Biso   1.000  H
  C127     1.0000 0.40238  0.94651  0.36393  Biso   1.000  C
  H148     1.0000 0.55178  0.03512  0.76169  Biso   1.000  H
  C128     1.0000 0.54993  0.96691  0.69579  Biso   1.000  C
  H149     1.0000 0.48500  0.02520  0.94780  Biso   1.000  H
  H150     1.0000 0.50558  0.07900  0.92181  Biso   1.000  H
  C129     1.0000 0.41631  0.98066  0.32048  Biso   1.000  C
  C130     1.0000 0.46994  0.91743  0.33149  Biso   1.000  C
  C131     1.0000 0.58367  0.98066  0.67950  Biso   1.000  C
  C132     1.0000 0.57770  0.89751  0.60955  Biso   1.000  C
  C133     1.0000 0.42228  0.89751  0.39043  Biso   1.000  C
  C134     1.0000 0.53004  0.91743  0.66849  Biso   1.000  C
  H151     1.0000 0.40248  0.01370  0.30190  Biso   1.000  H
  C135     1.0000 0.45634  0.88227  0.37405  Biso   1.000  C
  H152     1.0000 0.49311  0.90778  0.32071  Biso   1.000  H
  H153     1.0000 0.59750  0.01370  0.69808  Biso   1.000  H
  C136     1.0000 0.54367  0.88227  0.62593  Biso   1.000  C
  H154     1.0000 0.58710  0.87412  0.58019  Biso   1.000  H
  H155     1.0000 0.41290  0.87412  0.41979  Biso   1.000  H
  H156     1.0000 0.50690  0.90778  0.67932  Biso   1.000  H
  C137     1.0000 0.47870  0.83138  0.40131  Biso   1.000  C
  C138     1.0000 0.52127  0.83138  0.59867  Biso   1.000  C
  N23      1.0000 0.47041  0.79869  0.44350  Biso   1.000  N
  H157     1.0000 0.50070  0.82248  0.38642  Biso   1.000  H
  N24      1.0000 0.52961  0.79869  0.55653  Biso   1.000  N
  H158     1.0000 0.49929  0.82248  0.61361  Biso   1.000  H
  C139     1.0000 0.49471  0.74828  0.46394  Biso   1.000  C
  C140     1.0000 0.50528  0.74828  0.53609  Biso   1.000  C
  H159     1.0000 0.51789  0.75211  0.44672  Biso   1.000  H
  C141     1.0000 0.47441  0.69184  0.43869  Biso   1.000  C
  H160     1.0000 0.48209  0.75211  0.55331  Biso   1.000  H
  C142     1.0000 0.52560  0.69184  0.56129  Biso   1.000  C
  H161     1.0000 0.47059  0.69162  0.39258  Biso   1.000  H
  H162     1.0000 0.44959  0.69100  0.45008  Biso   1.000  H
  C143     1.0000 0.49639  0.63685  0.46501  Biso   1.000  C
  C144     1.0000 0.50362  0.63685  0.53501  Biso   1.000  C
  H163     1.0000 0.52939  0.69162  0.60740  Biso   1.000  H
  H164     1.0000 0.55038  0.69100  0.54990  Biso   1.000  H
  H165     1.0000 0.48210  0.60112  0.44891  Biso   1.000  H
  H166     1.0000 0.52040  0.63588  0.45078  Biso   1.000  H
  H167     1.0000 0.51788  0.60112  0.55112  Biso   1.000  H
  H168     1.0000 0.47961  0.63588  0.54920  Biso   1.000  H
  C145     1.0000 0.46131  0.49264  0.30531  Biso   1.000  C
  C146     1.0000 0.43717  0.50163  0.34591  Biso   1.000  C
  C147     1.0000 0.47911  0.43475  0.30410  Biso   1.000  C
  C148     1.0000 0.46880  0.53952  0.26727  Biso   1.000  C
  C149     1.0000 0.42074  0.55671  0.35039  Biso   1.000  C
  H169     1.0000 0.43170  0.46991  0.37102  Biso   1.000  H
  N25      1.0000 0.50299  0.42281  0.27035  Biso   1.000  N
  H170     1.0000 0.47260  0.40439  0.32981  Biso   1.000  H
  C150     1.0000 0.45214  0.59460  0.27068  Biso   1.000  C
  H171     1.0000 0.48519  0.53371  0.23932  Biso   1.000  H
  C151     1.0000 0.39696  0.56662  0.39627  Biso   1.000  C
  C152     1.0000 0.42791  0.60279  0.31287  Biso   1.000  C
  C153     1.0000 0.51984  0.36443  0.27824  Biso   1.000  C
  C154     1.0000 0.46064  0.64351  0.23087  Biso   1.000  C
  N26      1.0000 0.39169  0.52683  0.43482  Biso   1.000  N
  H172     1.0000 0.38510  0.60381  0.39720  Biso   1.000  H
  H173     1.0000 0.41650  0.63998  0.31548  Biso   1.000  H
  C155     1.0000 0.51015  0.33045  0.21617  Biso   1.000  C
  C156     1.0000 0.56201  0.37174  0.29831  Biso   1.000  C
  H174     1.0000 0.51010  0.34248  0.31119  Biso   1.000  H
  N27      1.0000 0.44503  0.69290  0.22989  Biso   1.000  N
  H175     1.0000 0.47839  0.63729  0.20539  Biso   1.000  H
  C157     1.0000 0.36941  0.54199  0.48032  Biso   1.000  C
  N28      1.0000 0.46978  0.31878  0.20114  Biso   1.000  N
  H176     1.0000 0.51731  0.35451  0.18220  Biso   1.000  H
  C158     1.0000 0.53059  0.27111  0.22102  Biso   1.000  C
  C159     1.0000 0.58175  0.31186  0.30410  Biso   1.000  C
  H177     1.0000 0.56780  0.39240  0.33900  Biso   1.000  H
  H178     1.0000 0.57130  0.39619  0.26732  Biso   1.000  H
  C160     1.0000 0.45647  0.73850  0.18980  Biso   1.000  C
  C161     1.0000 0.33597  0.49921  0.47252  Biso   1.000  C
  C162     1.0000 0.39339  0.53710  0.54556  Biso   1.000  C
  H179     1.0000 0.36011  0.58332  0.47299  Biso   1.000  H
  C163     1.0000 0.45225  0.33742  0.14873  Biso   1.000  C
  H180     1.0000 0.52068  0.24529  0.25029  Biso   1.000  H
  H181     1.0000 0.52559  0.25181  0.17958  Biso   1.000  H
  C164     1.0000 0.57274  0.27780  0.24361  Biso   1.000  C
  H182     1.0000 0.60900  0.31799  0.31600  Biso   1.000  H
  H183     1.0000 0.57391  0.28860  0.33760  Biso   1.000  H
  C165     1.0000 0.42195  0.76384  0.14673  Biso   1.000  C
  H184     1.0000 0.47330  0.72070  0.16409  Biso   1.000  H
  C166     1.0000 0.47728  0.78688  0.23111  Biso   1.000  C
  N29      1.0000 0.31159  0.50996  0.41214  Biso   1.000  N
  H185     1.0000 0.34520  0.45770  0.47421  Biso   1.000  H
  C167     1.0000 0.31344  0.50842  0.52339  Biso   1.000  C
  C168     1.0000 0.37026  0.54591  0.59638  Biso   1.000  C
  H186     1.0000 0.41340  0.56719  0.55070  Biso   1.000  H
  H187     1.0000 0.40538  0.49780  0.55070  Biso   1.000  H
  C169     1.0000 0.41256  0.32966  0.12573  Biso   1.000  C
  H188     1.0000 0.46600  0.35768  0.12288  Biso   1.000  H
  H189     1.0000 0.58439  0.23828  0.24982  Biso   1.000  H
  H190     1.0000 0.58330  0.29860  0.21141  Biso   1.000  H
  N30      1.0000 0.40395  0.71828  0.10356  Biso   1.000  N
  C170     1.0000 0.43300  0.81442  0.10790  Biso   1.000  C
  H191     1.0000 0.40409  0.77860  0.17221  Biso   1.000  H
  H192     1.0000 0.50030  0.77049  0.25701  Biso   1.000  H
  H193     1.0000 0.46148  0.80199  0.25948  Biso   1.000  H
  C171     1.0000 0.48740  0.83821  0.19069  Biso   1.000  C
  C172     1.0000 0.30149  0.46471  0.37825  Biso   1.000  C
  H194     1.0000 0.29330  0.47872  0.51882  Biso   1.000  H
  H195     1.0000 0.30179  0.54798  0.51882  Biso   1.000  H
  C173     1.0000 0.33862  0.50282  0.58822  Biso   1.000  C
  H196     1.0000 0.38638  0.54049  0.63801  Biso   1.000  H
  H197     1.0000 0.36029  0.58658  0.59400  Biso   1.000  H
  C174     1.0000 0.38874  0.30199  0.15975  Biso   1.000  C
  C175     1.0000 0.39715  0.35169  0.06576  Biso   1.000  C
  C176     1.0000 0.36954  0.71070  0.10202  Biso   1.000  C
  C177     1.0000 0.45399  0.86262  0.14939  Biso   1.000  C
  H198     1.0000 0.44889  0.79891  0.07990  Biso   1.000  H
  H199     1.0000 0.41030  0.83138  0.08148  Biso   1.000  H
  H200     1.0000 0.50000  0.86980  0.21841  Biso   1.000  H
  H201     1.0000 0.50490  0.82380  0.16521  Biso   1.000  H
  C178     1.0000 0.27649  0.46616  0.31698  Biso   1.000  C
  H202     1.0000 0.31090  0.42752  0.39389  Biso   1.000  H
  H203     1.0000 0.32371  0.51009  0.62051  Biso   1.000  H
  H204     1.0000 0.34869  0.46228  0.59391  Biso   1.000  H
  C179     1.0000 0.35114  0.29485  0.13501  Biso   1.000  C
  H205     1.0000 0.39858  0.28789  0.20058  Biso   1.000  H
  C180     1.0000 0.35916  0.34623  0.04084  Biso   1.000  C
  H206     1.0000 0.41291  0.37051  0.04210  Biso   1.000  H
  C181     1.0000 0.34535  0.66884  0.06072  Biso   1.000  C
  H207     1.0000 0.35839  0.73370  0.12960  Biso   1.000  H
  H208     1.0000 0.46160  0.89399  0.12302  Biso   1.000  H
  H209     1.0000 0.43750  0.88051  0.17492  Biso   1.000  H
  C182     1.0000 0.26735  0.41267  0.28655  Biso   1.000  C
  C183     1.0000 0.26088  0.51855  0.28781  Biso   1.000  C
  C184     1.0000 0.32647  0.26287  0.16927  Biso   1.000  C
  C185     1.0000 0.33641  0.31768  0.07532  Biso   1.000  C
  C186     1.0000 0.34219  0.36879  0.97849  Biso   1.000  C
  C187     1.0000 0.30852  0.66417  0.06520  Biso   1.000  C
  C188     1.0000 0.35862  0.63412  0.01699  Biso   1.000  C
  C189     1.0000 0.24334  0.41073  0.22765  Biso   1.000  C
  H210     1.0000 0.27741  0.37711  0.30578  Biso   1.000  H
  C190     1.0000 0.23710  0.51674  0.23059  Biso   1.000  C
  H211     1.0000 0.26690  0.55538  0.30802  Biso   1.000  H
  N31      1.0000 0.29321  0.25088  0.14416  Biso   1.000  N
  H212     1.0000 0.33580  0.25101  0.21108  Biso   1.000  H
  H213     1.0000 0.31059  0.31349  0.05829  Biso   1.000  H
  N32      1.0000 0.36059  0.39505  0.94348  Biso   1.000  N
  H214     1.0000 0.31618  0.36341  0.96378  Biso   1.000  H
  C191     1.0000 0.28416  0.62540  0.02786  Biso   1.000  C
  H215     1.0000 0.29950  0.68809  0.09450  Biso   1.000  H
  C192     1.0000 0.33525  0.59341  0.98110  Biso   1.000  C
  H216     1.0000 0.38361  0.63831  0.01181  Biso   1.000  H
  C193     1.0000 0.23400  0.35363  0.19638  Biso   1.000  C
  C194     1.0000 0.22836  0.46277  0.20007  Biso   1.000  C
  C195     1.0000 0.22093  0.57327  0.20385  Biso   1.000  C
  C196     1.0000 0.27107  0.21678  0.17944  Biso   1.000  C
  C197     1.0000 0.34109  0.41131  0.88123  Biso   1.000  C
  C198     1.0000 0.24486  0.62284  0.03150  Biso   1.000  C
  C199     1.0000 0.29828  0.58944  0.98670  Biso   1.000  C
  C200     1.0000 0.35050  0.55411  0.93849  Biso   1.000  C
  N33      1.0000 0.24759  0.30613  0.22102  Biso   1.000  N
  H217     1.0000 0.21750  0.35249  0.15690  Biso   1.000  H
  H218     1.0000 0.21209  0.46180  0.16040  Biso   1.000  H
  N34      1.0000 0.19904  0.57786  0.15214  Biso   1.000  N
  H219     1.0000 0.22761  0.60821  0.22742  Biso   1.000  H
  C201     1.0000 0.23655  0.25176  0.18649  Biso   1.000  C
  C202     1.0000 0.25873  0.15932  0.14519  Biso   1.000  C
  H220     1.0000 0.28629  0.20770  0.22168  Biso   1.000  H
  C203     1.0000 0.34927  0.47625  0.86849  Biso   1.000  C
  C204     1.0000 0.35413  0.37103  0.83400  Biso   1.000  C
  H221     1.0000 0.31367  0.40611  0.87819  Biso   1.000  H
  N35      1.0000 0.23165  0.65434  0.07005  Biso   1.000  N
  H222     1.0000 0.22870  0.59702  0.00439  Biso   1.000  H
  H223     1.0000 0.28238  0.56168  0.96192  Biso   1.000  H
  N36      1.0000 0.33160  0.51304  0.90890  Biso   1.000  N
  H224     1.0000 0.37537  0.55988  0.93340  Biso   1.000  H
  C205     1.0000 0.18506  0.63756  0.13319  Biso   1.000  C
  H225     1.0000 0.22179  0.26172  0.14421  Biso   1.000  H
  C206     1.0000 0.21215  0.21585  0.22252  Biso   1.000  C
  C207     1.0000 0.23429  0.12222  0.17879  Biso   1.000  C
  H226     1.0000 0.24480  0.16849  0.10258  Biso   1.000  H
  H227     1.0000 0.28101  0.13628  0.14108  Biso   1.000  H
  H228     1.0000 0.37676  0.48339  0.87712  Biso   1.000  H
  C208     1.0000 0.33216  0.49158  0.80068  Biso   1.000  C
  C209     1.0000 0.33727  0.38822  0.76759  Biso   1.000  C
  H229     1.0000 0.38158  0.37289  0.84020  Biso   1.000  H
  H230     1.0000 0.34718  0.32988  0.84128  Biso   1.000  H
  C210     1.0000 0.19137  0.65082  0.06781  Biso   1.000  C
  C211     1.0000 0.14403  0.64016  0.13604  Biso   1.000  C
  H231     1.0000 0.19899  0.66699  0.16311  Biso   1.000  H
  H232     1.0000 0.18981  0.23898  0.22611  Biso   1.000  H
  H233     1.0000 0.22631  0.20748  0.26522  Biso   1.000  H
  C212     1.0000 0.20009  0.15738  0.18859  Biso   1.000  C
  H234     1.0000 0.24891  0.10949  0.21972  Biso   1.000  H
  H235     1.0000 0.22601  0.08649  0.15391  Biso   1.000  H
  H236     1.0000 0.33817  0.53300  0.79242  Biso   1.000  H
  H237     1.0000 0.30477  0.48802  0.79410  Biso   1.000  H
  C213     1.0000 0.34667  0.45078  0.75438  Biso   1.000  C
  H238     1.0000 0.34668  0.36152  0.73851  Biso   1.000  H
  H239     1.0000 0.30987  0.38368  0.76040  Biso   1.000  H
  H240     1.0000 0.18041  0.61848  0.03878  Biso   1.000  H
  C214     1.0000 0.17370  0.70942  0.04401  Biso   1.000  C
  C215     1.0000 0.12654  0.69929  0.11280  Biso   1.000  C
  H241     1.0000 0.14119  0.63381  0.17958  Biso   1.000  H
  H242     1.0000 0.13059  0.60799  0.11019  Biso   1.000  H
  H243     1.0000 0.18581  0.13368  0.21370  Biso   1.000  H
  H244     1.0000 0.18370  0.16571  0.14771  Biso   1.000  H
  H245     1.0000 0.33497  0.46140  0.71098  Biso   1.000  H
  H246     1.0000 0.37396  0.45519  0.75928  Biso   1.000  H
  H247     1.0000 0.17618  0.71510  0.00019  Biso   1.000  H
  H248     1.0000 0.18720  0.74189  0.06921  Biso   1.000  H
  C216     1.0000 0.13223  0.71220  0.04751  Biso   1.000  C
  H249     1.0000 0.09950  0.69841  0.11289  Biso   1.000  H
  H250     1.0000 0.13790  0.73110  0.14131  Biso   1.000  H
  H251     1.0000 0.12240  0.75189  0.03472  Biso   1.000  H
  H252     1.0000 0.11809  0.68320  0.01811  Biso   1.000  H
  C217     1.0000 0.74458  0.58918  0.36505  Biso   1.000  C
  C218     1.0000 0.74446  0.52648  0.34358  Biso   1.000  C
  C219     1.0000 0.77763  0.60165  0.41816  Biso   1.000  C
  H253     1.0000 0.72120  0.59751  0.37928  Biso   1.000  H
  H254     1.0000 0.74580  0.61579  0.32958  Biso   1.000  H
  H255     1.0000 0.72399  0.52102  0.30690  Biso   1.000  H
  H256     1.0000 0.73960  0.50022  0.37718  Biso   1.000  H
  C220     1.0000 0.78154  0.50916  0.32622  Biso   1.000  C
  C221     1.0000 0.81488  0.58513  0.40061  Biso   1.000  C
  H257     1.0000 0.77470  0.57891  0.45549  Biso   1.000  H
  H258     1.0000 0.77788  0.64399  0.42889  Biso   1.000  H
  H259     1.0000 0.78089  0.46691  0.31511  Biso   1.000  H
  H260     1.0000 0.78499  0.53212  0.28930  Biso   1.000  H
  C222     1.0000 0.81422  0.52066  0.38012  Biso   1.000  C
  N37      1.0000 0.84428  0.59385  0.45554  Biso   1.000  N
  H261     1.0000 0.81938  0.61112  0.36589  Biso   1.000  H
  N38      1.0000 0.84876  0.50767  0.35889  Biso   1.000  N
  H262     1.0000 0.81219  0.49458  0.41610  Biso   1.000  H
  C223     1.0000 0.86622  0.63720  0.45451  Biso   1.000  C
  C224     1.0000 0.86711  0.46317  0.38222  Biso   1.000  C
  C225     1.0000 0.89573  0.65157  0.50907  Biso   1.000  C
  H263     1.0000 0.86350  0.66082  0.41802  Biso   1.000  H
  H264     1.0000 0.85799  0.43990  0.41209  Biso   1.000  H
  C226     1.0000 0.90236  0.44651  0.36393  Biso   1.000  C
  C227     1.0000 0.91881  0.69973  0.50617  Biso   1.000  C
  C228     1.0000 0.90022  0.61773  0.56390  Biso   1.000  C
  C229     1.0000 0.91632  0.48066  0.32048  Biso   1.000  C
  C230     1.0000 0.92229  0.39751  0.39043  Biso   1.000  C
  C231     1.0000 0.94636  0.71480  0.55798  Biso   1.000  C
  H265     1.0000 0.91590  0.72242  0.46898  Biso   1.000  H
  C232     1.0000 0.92807  0.63187  0.61505  Biso   1.000  C
  H266     1.0000 0.88419  0.58521  0.56600  Biso   1.000  H
  H267     1.0000 0.90250  0.51370  0.30190  Biso   1.000  H
  C233     1.0000 0.95007  0.46691  0.30419  Biso   1.000  C
  C234     1.0000 0.95633  0.38227  0.37405  Biso   1.000  C
  H268     1.0000 0.91289  0.37412  0.41979  Biso   1.000  H
  C235     1.0000 0.95107  0.68052  0.61169  Biso   1.000  C
  C236     1.0000 0.96948  0.76815  0.55858  Biso   1.000  C
  C237     1.0000 0.93197  0.59649  0.67278  Biso   1.000  C
  C238     1.0000 0.96995  0.41743  0.33149  Biso   1.000  C
  C239     1.0000 0.96421  0.50551  0.25962  Biso   1.000  C
  C240     1.0000 0.97872  0.33138  0.40131  Biso   1.000  C
  H269     1.0000 0.97008  0.69021  0.64651  Biso   1.000  H
  N39      1.0000 0.96363  0.80635  0.51621  Biso   1.000  N
  H270     1.0000 0.98981  0.77379  0.59270  Biso   1.000  H
  N40      1.0000 0.95722  0.60641  0.72015  Biso   1.000  N
  H271     1.0000 0.91489  0.56530  0.67428  Biso   1.000  H
  H272     1.0000 0.99310  0.40778  0.32071  Biso   1.000  H
  N41      1.0000 0.99652  0.50106  0.24856  Biso   1.000  N
  H273     1.0000 0.94821  0.53512  0.23829  Biso   1.000  H
  N42      1.0000 0.97039  0.29869  0.44350  Biso   1.000  N
  H274     1.0000 0.00069  0.32248  0.38642  Biso   1.000  H
  C241     1.0000 0.98776  0.85848  0.52456  Biso   1.000  C
  C242     1.0000 0.95703  0.57072  0.77611  Biso   1.000  C
  C243     1.0000 0.00460  0.54225  0.20096  Biso   1.000  C
  C244     1.0000 0.99472  0.24828  0.46394  Biso   1.000  C
  C245     1.0000 0.96359  0.91417  0.51765  Biso   1.000  C
  C246     1.0000 0.01224  0.85848  0.47542  Biso   1.000  C
  H275     1.0000 0.00398  0.85760  0.56722  Biso   1.000  H
  C247     1.0000 0.99541  0.54225  0.79907  Biso   1.000  C
  C248     1.0000 0.94828  0.61178  0.82679  Biso   1.000  C
  H276     1.0000 0.93750  0.53939  0.76649  Biso   1.000  H
  H277     1.0000 0.98509  0.57371  0.19340  Biso   1.000  H
  C249     1.0000 0.00395  0.50850  0.14038  Biso   1.000  C
  C250     1.0000 0.04295  0.57072  0.22392  Biso   1.000  C
  C251     1.0000 0.97440  0.19184  0.43869  Biso   1.000  C
  H278     1.0000 0.01791  0.25211  0.44672  Biso   1.000  H
  C252     1.0000 0.00526  0.24828  0.53609  Biso   1.000  C
  H279     1.0000 0.94630  0.91342  0.47659  Biso   1.000  H
  H280     1.0000 0.94851  0.91430  0.55042  Biso   1.000  H
  C253     1.0000 0.98665  0.97035  0.52283  Biso   1.000  C
  H281     1.0000 0.99600  0.85760  0.43281  Biso   1.000  H
  N43      1.0000 0.03635  0.80635  0.48377  Biso   1.000  N
  C254     1.0000 0.03639  0.91417  0.48233  Biso   1.000  C
  C255     1.0000 0.99605  0.50850  0.85960  Biso   1.000  C
  N44      1.0000 0.00349  0.50106  0.75142  Biso   1.000  N
  H282     1.0000 0.01489  0.57371  0.80658  Biso   1.000  H
  C256     1.0000 0.94913  0.57887  0.88835  Biso   1.000  C
  H283     1.0000 0.92340  0.62941  0.81242  Biso   1.000  H
  H284     1.0000 0.96679  0.64421  0.83398  Biso   1.000  H
  H285     1.0000 0.97880  0.49172  0.12531  Biso   1.000  H
  H286     1.0000 0.02189  0.47541  0.14850  Biso   1.000  H
  C257     1.0000 0.01403  0.54882  0.08984  Biso   1.000  C
  N45      1.0000 0.04279  0.60641  0.27983  Biso   1.000  N
  C258     1.0000 0.05170  0.61178  0.17319  Biso   1.000  C
  H287     1.0000 0.06251  0.53939  0.23349  Biso   1.000  H
  H288     1.0000 0.97061  0.19162  0.39258  Biso   1.000  H
  H289     1.0000 0.94958  0.19100  0.45008  Biso   1.000  H
  C259     1.0000 0.99638  0.13685  0.46501  Biso   1.000  C
  H290     1.0000 0.98210  0.25211  0.55331  Biso   1.000  H
  N46      1.0000 0.02959  0.29869  0.55653  Biso   1.000  N
  C260     1.0000 0.02558  0.19184  0.56129  Biso   1.000  C
  H291     1.0000 0.96979  0.00471  0.51411  Biso   1.000  H
  C261     1.0000 0.01335  0.97035  0.47715  Biso   1.000  C
  H292     1.0000 0.00119  0.97431  0.56600  Biso   1.000  H
  C262     1.0000 0.03052  0.76815  0.44140  Biso   1.000  C
  H293     1.0000 0.05371  0.91342  0.52339  Biso   1.000  H
  H294     1.0000 0.05150  0.91430  0.44961  Biso   1.000  H
  H295     1.0000 0.97808  0.47541  0.85148  Biso   1.000  H
  C263     1.0000 0.98595  0.54882  0.91014  Biso   1.000  C
  H296     1.0000 0.02119  0.49172  0.87472  Biso   1.000  H
  C264     1.0000 0.03577  0.50551  0.74041  Biso   1.000  C
  H297     1.0000 0.94468  0.60711  0.92060  Biso   1.000  H
  H298     1.0000 0.92898  0.54908  0.88228  Biso   1.000  H
  H299     1.0000 0.99439  0.57900  0.07822  Biso   1.000  H
  H300     1.0000 0.01500  0.52520  0.05222  Biso   1.000  H
  C265     1.0000 0.05086  0.57887  0.11168  Biso   1.000  C
  C266     1.0000 0.06801  0.59649  0.32720  Biso   1.000  C
  H301     1.0000 0.07661  0.62941  0.18761  Biso   1.000  H
  H302     1.0000 0.03319  0.64421  0.16600  Biso   1.000  H
  H303     1.0000 0.98209  0.10112  0.44891  Biso   1.000  H
  H304     1.0000 0.02039  0.13588  0.45078  Biso   1.000  H
  C267     1.0000 0.00361  0.13685  0.53501  Biso   1.000  C
  C268     1.0000 0.02126  0.33138  0.59867  Biso   1.000  C
  H305     1.0000 0.02940  0.19162  0.60740  Biso   1.000  H
  H306     1.0000 0.05040  0.19100  0.54990  Biso   1.000  H
  H307     1.0000 0.99879  0.97431  0.43398  Biso   1.000  H
  H308     1.0000 0.03020  0.00471  0.48592  Biso   1.000  H
  C269     1.0000 0.05362  0.71480  0.44200  Biso   1.000  C
  H309     1.0000 0.01020  0.77379  0.40728  Biso   1.000  H
  H310     1.0000 0.98499  0.52520  0.94780  Biso   1.000  H
  H311     1.0000 0.00559  0.57900  0.92181  Biso   1.000  H
  C270     1.0000 0.04994  0.46691  0.69579  Biso   1.000  C
  H312     1.0000 0.05180  0.53512  0.76169  Biso   1.000  H
  H313     1.0000 0.05530  0.60711  0.07938  Biso   1.000  H
  H314     1.0000 0.07100  0.54908  0.11770  Biso   1.000  H
  C271     1.0000 0.07191  0.63187  0.38493  Biso   1.000  C
  H315     1.0000 0.08509  0.56530  0.32570  Biso   1.000  H
  H316     1.0000 0.97959  0.13588  0.54920  Biso   1.000  H
  H317     1.0000 0.01790  0.10112  0.55112  Biso   1.000  H
  H318     1.0000 0.99930  0.32248  0.61361  Biso   1.000  H
  C272     1.0000 0.04365  0.38227  0.62593  Biso   1.000  C
  C273     1.0000 0.04891  0.68052  0.38829  Biso   1.000  C
  C274     1.0000 0.08119  0.69973  0.49381  Biso   1.000  C
  C275     1.0000 0.03005  0.41743  0.66849  Biso   1.000  C
  C276     1.0000 0.08366  0.48066  0.67950  Biso   1.000  C
  C277     1.0000 0.09979  0.61773  0.43612  Biso   1.000  C
  C278     1.0000 0.07769  0.39751  0.60955  Biso   1.000  C
  H319     1.0000 0.02990  0.69021  0.35352  Biso   1.000  H
  C279     1.0000 0.10425  0.65157  0.49091  Biso   1.000  C
  H320     1.0000 0.08410  0.72242  0.53100  Biso   1.000  H
  H321     1.0000 0.00689  0.40778  0.67932  Biso   1.000  H
  C280     1.0000 0.09762  0.44651  0.63605  Biso   1.000  C
  H322     1.0000 0.09748  0.51370  0.69808  Biso   1.000  H
  H323     1.0000 0.11579  0.58521  0.43398  Biso   1.000  H
  H324     1.0000 0.08709  0.37412  0.58019  Biso   1.000  H
  C281     1.0000 0.13377  0.63720  0.54552  Biso   1.000  C
  C282     1.0000 0.13289  0.46317  0.61776  Biso   1.000  C
  N47      1.0000 0.15571  0.59385  0.54449  Biso   1.000  N
  H325     1.0000 0.13648  0.66082  0.58201  Biso   1.000  H
  N48      1.0000 0.15122  0.50767  0.64109  Biso   1.000  N
  H326     1.0000 0.14199  0.43990  0.58789  Biso   1.000  H
  C283     1.0000 0.18510  0.58513  0.59942  Biso   1.000  C
  C284     1.0000 0.18576  0.52066  0.61986  Biso   1.000  C
  H327     1.0000 0.18059  0.61112  0.63409  Biso   1.000  H
  C285     1.0000 0.22235  0.60165  0.58187  Biso   1.000  C
  C286     1.0000 0.21845  0.50916  0.67381  Biso   1.000  C
  H328     1.0000 0.18779  0.49458  0.58388  Biso   1.000  H
  H329     1.0000 0.22528  0.57891  0.54449  Biso   1.000  H
  H330     1.0000 0.22210  0.64399  0.57109  Biso   1.000  H
  C287     1.0000 0.25540  0.58918  0.63498  Biso   1.000  C
  C288     1.0000 0.25552  0.52648  0.65640  Biso   1.000  C
  H331     1.0000 0.21910  0.46691  0.68492  Biso   1.000  H
  H332     1.0000 0.21499  0.53212  0.71068  Biso   1.000  H
  H333     1.0000 0.27878  0.59751  0.62070  Biso   1.000  H
  H334     1.0000 0.25420  0.61579  0.67040  Biso   1.000  H
  H335     1.0000 0.27599  0.52102  0.69308  Biso   1.000  H
  H336     1.0000 0.26041  0.50022  0.62280  Biso   1.000  H
  C289     1.0000 0.71214  0.71585  0.22252  Biso   1.000  C
  C290     1.0000 0.70007  0.65738  0.18859  Biso   1.000  C
  C291     1.0000 0.73656  0.75176  0.18649  Biso   1.000  C
  H337     1.0000 0.68980  0.73898  0.22611  Biso   1.000  H
  H338     1.0000 0.72629  0.70748  0.26522  Biso   1.000  H
  H339     1.0000 0.68580  0.63368  0.21370  Biso   1.000  H
  H340     1.0000 0.68371  0.66571  0.14771  Biso   1.000  H
  C292     1.0000 0.73430  0.62222  0.17879  Biso   1.000  C
  N49      1.0000 0.74758  0.80613  0.22102  Biso   1.000  N
  H341     1.0000 0.72180  0.76172  0.14421  Biso   1.000  H
  C293     1.0000 0.77109  0.71678  0.17944  Biso   1.000  C
  H342     1.0000 0.74890  0.60949  0.21972  Biso   1.000  H
  H343     1.0000 0.72599  0.58649  0.15391  Biso   1.000  H
  C294     1.0000 0.75874  0.65932  0.14519  Biso   1.000  C
  C295     1.0000 0.73401  0.85363  0.19638  Biso   1.000  C
  N50      1.0000 0.79320  0.75088  0.14416  Biso   1.000  N
  H344     1.0000 0.78631  0.70770  0.22168  Biso   1.000  H
  H345     1.0000 0.74479  0.66849  0.10258  Biso   1.000  H
  H346     1.0000 0.78099  0.63628  0.14108  Biso   1.000  H
  C296     1.0000 0.74333  0.91073  0.22765  Biso   1.000  C
  H347     1.0000 0.71749  0.85249  0.15690  Biso   1.000  H
  C297     1.0000 0.82646  0.76287  0.16927  Biso   1.000  C
  C298     1.0000 0.72835  0.96277  0.20007  Biso   1.000  C
  C299     1.0000 0.76734  0.91267  0.28655  Biso   1.000  C
  C300     1.0000 0.85115  0.79485  0.13501  Biso   1.000  C
  H348     1.0000 0.83579  0.75101  0.21108  Biso   1.000  H
  H349     1.0000 0.71210  0.96180  0.16040  Biso   1.000  H
  C301     1.0000 0.73711  0.01674  0.23059  Biso   1.000  C
  C302     1.0000 0.77647  0.96616  0.31698  Biso   1.000  C
  H350     1.0000 0.77739  0.87711  0.30578  Biso   1.000  H
  C303     1.0000 0.83643  0.81768  0.07532  Biso   1.000  C
  C304     1.0000 0.88876  0.80199  0.15975  Biso   1.000  C
  C305     1.0000 0.76089  0.01855  0.28781  Biso   1.000  C
  C306     1.0000 0.72092  0.07327  0.20385  Biso   1.000  C
  C307     1.0000 0.80151  0.96471  0.37825  Biso   1.000  C
  C308     1.0000 0.85915  0.84623  0.04084  Biso   1.000  C
  H351     1.0000 0.81060  0.81349  0.05829  Biso   1.000  H
  H352     1.0000 0.89860  0.78789  0.20058  Biso   1.000  H
  C309     1.0000 0.91255  0.82966  0.12573  Biso   1.000  C
  H353     1.0000 0.76689  0.05538  0.30802  Biso   1.000  H
  N51      1.0000 0.69903  0.07786  0.15214  Biso   1.000  N
  H354     1.0000 0.72759  0.10821  0.22742  Biso   1.000  H
  H355     1.0000 0.81088  0.92752  0.39389  Biso   1.000  H
  N52      1.0000 0.81160  0.00996  0.41214  Biso   1.000  N
  C310     1.0000 0.89716  0.85169  0.06576  Biso   1.000  C
  C311     1.0000 0.84217  0.86879  0.97849  Biso   1.000  C
  C312     1.0000 0.95226  0.83742  0.14873  Biso   1.000  C
  C313     1.0000 0.68508  0.13756  0.13319  Biso   1.000  C
  C314     1.0000 0.83598  0.99921  0.47252  Biso   1.000  C
  H356     1.0000 0.91290  0.87051  0.04210  Biso   1.000  H
  N53      1.0000 0.86058  0.89505  0.94348  Biso   1.000  N
  H357     1.0000 0.81616  0.86341  0.96378  Biso   1.000  H
  N54      1.0000 0.96977  0.81878  0.20114  Biso   1.000  N
  H358     1.0000 0.96599  0.85768  0.12288  Biso   1.000  H
  C315     1.0000 0.69135  0.15082  0.06781  Biso   1.000  C
  C316     1.0000 0.64402  0.14016  0.13604  Biso   1.000  C
  H359     1.0000 0.69901  0.16699  0.16311  Biso   1.000  H
  H360     1.0000 0.84521  0.95770  0.47421  Biso   1.000  H
  C317     1.0000 0.81345  0.00842  0.52339  Biso   1.000  C
  C318     1.0000 0.86940  0.04199  0.48032  Biso   1.000  C
  C319     1.0000 0.84111  0.91131  0.88123  Biso   1.000  C
  C320     1.0000 0.01016  0.83045  0.21617  Biso   1.000  C
  N55      1.0000 0.73163  0.15434  0.07005  Biso   1.000  N
  H361     1.0000 0.68040  0.11848  0.03878  Biso   1.000  H
  C321     1.0000 0.67371  0.20942  0.04401  Biso   1.000  C
  C322     1.0000 0.62653  0.19929  0.11280  Biso   1.000  C
  H362     1.0000 0.64120  0.13381  0.17958  Biso   1.000  H
  H363     1.0000 0.63060  0.10799  0.11019  Biso   1.000  H
  H364     1.0000 0.79329  0.97872  0.51882  Biso   1.000  H
  H365     1.0000 0.80180  0.04798  0.51882  Biso   1.000  H
  C323     1.0000 0.83861  0.00282  0.58822  Biso   1.000  C
  N56      1.0000 0.89170  0.02683  0.43482  Biso   1.000  N
  C324     1.0000 0.89341  0.03710  0.54556  Biso   1.000  C
  H366     1.0000 0.86009  0.08332  0.47299  Biso   1.000  H
  C325     1.0000 0.84929  0.97625  0.86849  Biso   1.000  C
  C326     1.0000 0.85414  0.87103  0.83400  Biso   1.000  C
  H367     1.0000 0.81369  0.90611  0.87819  Biso   1.000  H
  H368     1.0000 0.01729  0.85451  0.18220  Biso   1.000  H
  C327     1.0000 0.03057  0.77111  0.22102  Biso   1.000  C
  C328     1.0000 0.01985  0.86443  0.27824  Biso   1.000  C
  C329     1.0000 0.74484  0.12284  0.03150  Biso   1.000  C
  H369     1.0000 0.67620  0.21510  0.00019  Biso   1.000  H
  H370     1.0000 0.68721  0.24189  0.06921  Biso   1.000  H
  C330     1.0000 0.63221  0.21220  0.04751  Biso   1.000  C
  H371     1.0000 0.59951  0.19841  0.11289  Biso   1.000  H
  H372     1.0000 0.63791  0.23110  0.14131  Biso   1.000  H
  H373     1.0000 0.84870  0.96228  0.59391  Biso   1.000  H
  H374     1.0000 0.82369  0.01009  0.62051  Biso   1.000  H
  C331     1.0000 0.87027  0.04591  0.59638  Biso   1.000  C
  C332     1.0000 0.89695  0.06662  0.39627  Biso   1.000  C
  H375     1.0000 0.90540  0.99780  0.55070  Biso   1.000  H
  H376     1.0000 0.91339  0.06719  0.55070  Biso   1.000  H
  H377     1.0000 0.87678  0.98339  0.87712  Biso   1.000  H
  C333     1.0000 0.83214  0.99158  0.80068  Biso   1.000  C
  N57      1.0000 0.83161  0.01304  0.90890  Biso   1.000  N
  C334     1.0000 0.83728  0.88822  0.76759  Biso   1.000  C
  H378     1.0000 0.88156  0.87289  0.84020  Biso   1.000  H
  H379     1.0000 0.84716  0.82988  0.84128  Biso   1.000  H
  H380     1.0000 0.02070  0.74529  0.25029  Biso   1.000  H
  H381     1.0000 0.02560  0.75181  0.17958  Biso   1.000  H
  C335     1.0000 0.07275  0.77780  0.24361  Biso   1.000  C
  N58      1.0000 0.00298  0.92281  0.27035  Biso   1.000  N
  C336     1.0000 0.06200  0.87174  0.29831  Biso   1.000  C
  H382     1.0000 0.01009  0.84248  0.31119  Biso   1.000  H
  C337     1.0000 0.78417  0.12540  0.02786  Biso   1.000  C
  H383     1.0000 0.72869  0.09702  0.00439  Biso   1.000  H
  H384     1.0000 0.62242  0.25189  0.03472  Biso   1.000  H
  H385     1.0000 0.61810  0.18320  0.01811  Biso   1.000  H
  H386     1.0000 0.88640  0.04049  0.63801  Biso   1.000  H
  H387     1.0000 0.86030  0.08658  0.59400  Biso   1.000  H
  C338     1.0000 0.92076  0.05671  0.35039  Biso   1.000  C
  H388     1.0000 0.88508  0.10381  0.39720  Biso   1.000  H
  H389     1.0000 0.80479  0.98802  0.79410  Biso   1.000  H
  C339     1.0000 0.84668  0.95078  0.75438  Biso   1.000  C
  H390     1.0000 0.83819  0.03300  0.79242  Biso   1.000  H
  C340     1.0000 0.85052  0.05411  0.93849  Biso   1.000  C
  H391     1.0000 0.84669  0.86152  0.73851  Biso   1.000  H
  H392     1.0000 0.80988  0.88368  0.76040  Biso   1.000  H
  H393     1.0000 0.08441  0.73828  0.24982  Biso   1.000  H
  H394     1.0000 0.08329  0.79860  0.21141  Biso   1.000  H
  C341     1.0000 0.08173  0.81186  0.30410  Biso   1.000  C
  C342     1.0000 0.97913  0.93475  0.30410  Biso   1.000  C
  H395     1.0000 0.06779  0.89240  0.33900  Biso   1.000  H
  H396     1.0000 0.07129  0.89619  0.26732  Biso   1.000  H
  C343     1.0000 0.79829  0.08944  0.98670  Biso   1.000  C
  C344     1.0000 0.80854  0.16417  0.06520  Biso   1.000  C
  C345     1.0000 0.93716  0.00163  0.34591  Biso   1.000  C
  C346     1.0000 0.92790  0.10279  0.31287  Biso   1.000  C
  H397     1.0000 0.83498  0.96140  0.71098  Biso   1.000  H
  H398     1.0000 0.87397  0.95519  0.75928  Biso   1.000  H
  C347     1.0000 0.83526  0.09341  0.98110  Biso   1.000  C
  H399     1.0000 0.87538  0.05988  0.93340  Biso   1.000  H
  H400     1.0000 0.10899  0.81799  0.31600  Biso   1.000  H
  H401     1.0000 0.07389  0.78860  0.33760  Biso   1.000  H
  C348     1.0000 0.96130  0.99264  0.30531  Biso   1.000  C
  H402     1.0000 0.97259  0.90439  0.32981  Biso   1.000  H
  H403     1.0000 0.78236  0.06168  0.96192  Biso   1.000  H
  C349     1.0000 0.84536  0.16884  0.06072  Biso   1.000  C
  H404     1.0000 0.79951  0.18809  0.09450  Biso   1.000  H
  H405     1.0000 0.93169  0.96991  0.37102  Biso   1.000  H
  H406     1.0000 0.91648  0.13998  0.31548  Biso   1.000  H
  C350     1.0000 0.95212  0.09460  0.27068  Biso   1.000  C
  C351     1.0000 0.85863  0.13412  0.01699  Biso   1.000  C
  C352     1.0000 0.96879  0.03952  0.26727  Biso   1.000  C
  C353     1.0000 0.86952  0.21070  0.10202  Biso   1.000  C
  C354     1.0000 0.96065  0.14351  0.23087  Biso   1.000  C
  H407     1.0000 0.88359  0.13831  0.01181  Biso   1.000  H
  H408     1.0000 0.98521  0.03371  0.23932  Biso   1.000  H
  N59      1.0000 0.90397  0.21828  0.10356  Biso   1.000  N
  H409     1.0000 0.85841  0.23370  0.12960  Biso   1.000  H
  N60      1.0000 0.94502  0.19290  0.22989  Biso   1.000  N
  H410     1.0000 0.97840  0.13729  0.20539  Biso   1.000  H
  C355     1.0000 0.92194  0.26384  0.14673  Biso   1.000  C
  C356     1.0000 0.95646  0.23850  0.18980  Biso   1.000  C
  C357     1.0000 0.93299  0.31442  0.10790  Biso   1.000  C
  H411     1.0000 0.90411  0.27860  0.17221  Biso   1.000  H
  H412     1.0000 0.97331  0.22070  0.16409  Biso   1.000  H
  C358     1.0000 0.97729  0.28688  0.23111  Biso   1.000  C
  C359     1.0000 0.95401  0.36262  0.14939  Biso   1.000  C
  H413     1.0000 0.94891  0.29891  0.07990  Biso   1.000  H
  H414     1.0000 0.91029  0.33138  0.08148  Biso   1.000  H
  H415     1.0000 0.96150  0.30199  0.25948  Biso   1.000  H
  C360     1.0000 0.98739  0.33821  0.19069  Biso   1.000  C
  H416     1.0000 0.00031  0.27049  0.25701  Biso   1.000  H
  H417     1.0000 0.96161  0.39399  0.12302  Biso   1.000  H
  H418     1.0000 0.93749  0.38051  0.17492  Biso   1.000  H
  H419     1.0000 0.99999  0.36980  0.21841  Biso   1.000  H
  H420     1.0000 0.00489  0.32380  0.16521  Biso   1.000  H
  C361     1.0000 0.29990  0.65738  0.81139  Biso   1.000  C
  C362     1.0000 0.26568  0.62222  0.82119  Biso   1.000  C
  C363     1.0000 0.28785  0.71585  0.77751  Biso   1.000  C
  H421     1.0000 0.31418  0.63368  0.78628  Biso   1.000  H
  H422     1.0000 0.31630  0.66571  0.85232  Biso   1.000  H
  H423     1.0000 0.25109  0.60949  0.78031  Biso   1.000  H
  H424     1.0000 0.27399  0.58649  0.84611  Biso   1.000  H
  C364     1.0000 0.24124  0.65932  0.85479  Biso   1.000  C
  C365     1.0000 0.26342  0.75176  0.81349  Biso   1.000  C
  H425     1.0000 0.31019  0.73898  0.77391  Biso   1.000  H
  H426     1.0000 0.27369  0.70748  0.73481  Biso   1.000  H
  H427     1.0000 0.25519  0.66849  0.89740  Biso   1.000  H
  H428     1.0000 0.21899  0.63628  0.85890  Biso   1.000  H
  C366     1.0000 0.22889  0.71678  0.82054  Biso   1.000  C
  N61      1.0000 0.25240  0.80613  0.77895  Biso   1.000  N
  H429     1.0000 0.27818  0.76172  0.85582  Biso   1.000  H
  N62      1.0000 0.20679  0.75088  0.85587  Biso   1.000  N
  H430     1.0000 0.21370  0.70770  0.77830  Biso   1.000  H
  C367     1.0000 0.26597  0.85363  0.80364  Biso   1.000  C
  C368     1.0000 0.17352  0.76287  0.83076  Biso   1.000  C
  C369     1.0000 0.25665  0.91073  0.77233  Biso   1.000  C
  H431     1.0000 0.28249  0.85249  0.84308  Biso   1.000  H
  C370     1.0000 0.14886  0.79485  0.86497  Biso   1.000  C
  H432     1.0000 0.16419  0.75101  0.78889  Biso   1.000  H
  C371     1.0000 0.27163  0.96277  0.79991  Biso   1.000  C
  C372     1.0000 0.23264  0.91267  0.71343  Biso   1.000  C
  C373     1.0000 0.16358  0.81768  0.92466  Biso   1.000  C
  C374     1.0000 0.11126  0.80199  0.84028  Biso   1.000  C
  H433     1.0000 0.28788  0.96180  0.83958  Biso   1.000  H
  C375     1.0000 0.26290  0.01674  0.76939  Biso   1.000  C
  C376     1.0000 0.22351  0.96616  0.68305  Biso   1.000  C
  H434     1.0000 0.22259  0.87711  0.69420  Biso   1.000  H
  C377     1.0000 0.14083  0.84623  0.95914  Biso   1.000  C
  H435     1.0000 0.18938  0.81349  0.94169  Biso   1.000  H
  H436     1.0000 0.10138  0.78789  0.79940  Biso   1.000  H
  C378     1.0000 0.08743  0.82966  0.87425  Biso   1.000  C
  C379     1.0000 0.23909  0.01855  0.71217  Biso   1.000  C
  C380     1.0000 0.27906  0.07327  0.79613  Biso   1.000  C
  C381     1.0000 0.19850  0.96471  0.62173  Biso   1.000  C
  C382     1.0000 0.10284  0.85169  0.93422  Biso   1.000  C
  C383     1.0000 0.15781  0.86879  0.02154  Biso   1.000  C
  C384     1.0000 0.04774  0.83742  0.85124  Biso   1.000  C
  H437     1.0000 0.23310  0.05538  0.69201  Biso   1.000  H
  N63      1.0000 0.30095  0.07786  0.84784  Biso   1.000  N
  H438     1.0000 0.27239  0.10821  0.77261  Biso   1.000  H
  H439     1.0000 0.18910  0.92752  0.60609  Biso   1.000  H
  N64      1.0000 0.18841  0.00996  0.58784  Biso   1.000  N
  H440     1.0000 0.08708  0.87051  0.95788  Biso   1.000  H
  N65      1.0000 0.13940  0.89505  0.05650  Biso   1.000  N
  H441     1.0000 0.18382  0.86341  0.03619  Biso   1.000  H
  N66      1.0000 0.03022  0.81878  0.79888  Biso   1.000  N
  H442     1.0000 0.03399  0.85768  0.87710  Biso   1.000  H
  C385     1.0000 0.31490  0.13756  0.86679  Biso   1.000  C
  C386     1.0000 0.16400  0.99921  0.52750  Biso   1.000  C
  C387     1.0000 0.15890  0.91131  0.11875  Biso   1.000  C
  C388     1.0000 0.98984  0.83045  0.78381  Biso   1.000  C
  C389     1.0000 0.30862  0.15082  0.93217  Biso   1.000  C
  C390     1.0000 0.35597  0.14016  0.86399  Biso   1.000  C
  H443     1.0000 0.30101  0.16699  0.83692  Biso   1.000  H
  H444     1.0000 0.15480  0.95770  0.52582  Biso   1.000  H
  C391     1.0000 0.18656  0.00842  0.47659  Biso   1.000  C
  C392     1.0000 0.13058  0.04199  0.51966  Biso   1.000  C
  C393     1.0000 0.15073  0.97625  0.13154  Biso   1.000  C
  C394     1.0000 0.14583  0.87103  0.16598  Biso   1.000  C
  H445     1.0000 0.18632  0.90611  0.12179  Biso   1.000  H
  H446     1.0000 0.98268  0.85451  0.81778  Biso   1.000  H
  C395     1.0000 0.96940  0.77111  0.77895  Biso   1.000  C
  C396     1.0000 0.98013  0.86443  0.72178  Biso   1.000  C
  N67      1.0000 0.26835  0.15434  0.92998  Biso   1.000  N
  H447     1.0000 0.31958  0.11848  0.96120  Biso   1.000  H
  C397     1.0000 0.32626  0.20942  0.95597  Biso   1.000  C
  C398     1.0000 0.37346  0.19929  0.88723  Biso   1.000  C
  H448     1.0000 0.35878  0.13381  0.82040  Biso   1.000  H
  H449     1.0000 0.36940  0.10799  0.88979  Biso   1.000  H
  H450     1.0000 0.20669  0.97872  0.48121  Biso   1.000  H
  H451     1.0000 0.19818  0.04798  0.48121  Biso   1.000  H
  C399     1.0000 0.16138  0.00282  0.41181  Biso   1.000  C
  N68      1.0000 0.10828  0.02683  0.56521  Biso   1.000  N
  C400     1.0000 0.10657  0.03710  0.45442  Biso   1.000  C
  H452     1.0000 0.13989  0.08332  0.52699  Biso   1.000  H
  H453     1.0000 0.12321  0.98339  0.12291  Biso   1.000  H
  C401     1.0000 0.16784  0.99158  0.19930  Biso   1.000  C
  N69      1.0000 0.16840  0.01304  0.09108  Biso   1.000  N
  C402     1.0000 0.16273  0.88822  0.23239  Biso   1.000  C
  H454     1.0000 0.11842  0.87289  0.15977  Biso   1.000  H
  H455     1.0000 0.15282  0.82988  0.15870  Biso   1.000  H
  H456     1.0000 0.97928  0.74529  0.74969  Biso   1.000  H
  H457     1.0000 0.97438  0.75181  0.82040  Biso   1.000  H
  C403     1.0000 0.92723  0.77780  0.75641  Biso   1.000  C
  N70      1.0000 0.99700  0.92281  0.72963  Biso   1.000  N
  C404     1.0000 0.93798  0.87174  0.70167  Biso   1.000  C
  H458     1.0000 0.98989  0.84248  0.68879  Biso   1.000  H
  C405     1.0000 0.25514  0.12284  0.96852  Biso   1.000  C
  H459     1.0000 0.32378  0.21510  0.99979  Biso   1.000  H
  H460     1.0000 0.31280  0.24189  0.93082  Biso   1.000  H
  C406     1.0000 0.36777  0.21220  0.95252  Biso   1.000  C
  H461     1.0000 0.40050  0.19841  0.88709  Biso   1.000  H
  H462     1.0000 0.36210  0.23110  0.85871  Biso   1.000  H
  H463     1.0000 0.15128  0.96228  0.40611  Biso   1.000  H
  H464     1.0000 0.17629  0.01009  0.37951  Biso   1.000  H
  C407     1.0000 0.12974  0.04591  0.40359  Biso   1.000  C
  C408     1.0000 0.10304  0.06662  0.60376  Biso   1.000  C
  H465     1.0000 0.09458  0.99780  0.44928  Biso   1.000  H
  H466     1.0000 0.08659  0.06719  0.44928  Biso   1.000  H
  H467     1.0000 0.19522  0.98802  0.20588  Biso   1.000  H
  C409     1.0000 0.15332  0.95078  0.24560  Biso   1.000  C
  H468     1.0000 0.16182  0.03300  0.20761  Biso   1.000  H
  C410     1.0000 0.14946  0.05411  0.06149  Biso   1.000  C
  H469     1.0000 0.15332  0.86152  0.26151  Biso   1.000  H
  H470     1.0000 0.19010  0.88368  0.23958  Biso   1.000  H
  H471     1.0000 0.91560  0.73828  0.75021  Biso   1.000  H
  H472     1.0000 0.91670  0.79860  0.78861  Biso   1.000  H
  C411     1.0000 0.91825  0.81186  0.69588  Biso   1.000  C
  C412     1.0000 0.02086  0.93475  0.69593  Biso   1.000  C
  H473     1.0000 0.93219  0.89240  0.66097  Biso   1.000  H
  H474     1.0000 0.92870  0.89619  0.73271  Biso   1.000  H
  C413     1.0000 0.21583  0.12540  0.97212  Biso   1.000  C
  H475     1.0000 0.27129  0.09702  0.99559  Biso   1.000  H
  H476     1.0000 0.37760  0.25189  0.96530  Biso   1.000  H
  H477     1.0000 0.38188  0.18320  0.98192  Biso   1.000  H
  H478     1.0000 0.11359  0.04049  0.36201  Biso   1.000  H
  H479     1.0000 0.13971  0.08658  0.40602  Biso   1.000  H
  C414     1.0000 0.07926  0.05671  0.64963  Biso   1.000  C
  H480     1.0000 0.11489  0.10381  0.60278  Biso   1.000  H
  H481     1.0000 0.16502  0.96140  0.28900  Biso   1.000  H
  H482     1.0000 0.12600  0.95519  0.24070  Biso   1.000  H
  C415     1.0000 0.16475  0.09341  0.01888  Biso   1.000  C
  H483     1.0000 0.12463  0.05988  0.06658  Biso   1.000  H
  H484     1.0000 0.89099  0.81799  0.68398  Biso   1.000  H
  H485     1.0000 0.92609  0.78860  0.66237  Biso   1.000  H
  C416     1.0000 0.03868  0.99264  0.69472  Biso   1.000  C
  H486     1.0000 0.02740  0.90439  0.67022  Biso   1.000  H
  C417     1.0000 0.20171  0.08944  0.01328  Biso   1.000  C
  C418     1.0000 0.19147  0.16417  0.93478  Biso   1.000  C
  C419     1.0000 0.06282  0.00163  0.65407  Biso   1.000  C
  C420     1.0000 0.07209  0.10279  0.68716  Biso   1.000  C
  C421     1.0000 0.14135  0.13412  0.98299  Biso   1.000  C
  C422     1.0000 0.03119  0.03952  0.73271  Biso   1.000  C
  H487     1.0000 0.21762  0.06168  0.03811  Biso   1.000  H
  C423     1.0000 0.15464  0.16884  0.93926  Biso   1.000  C
  H488     1.0000 0.20050  0.18809  0.90547  Biso   1.000  H
  H489     1.0000 0.06830  0.96991  0.62901  Biso   1.000  H
  C424     1.0000 0.04786  0.09460  0.72930  Biso   1.000  C
  H490     1.0000 0.08350  0.13998  0.68450  Biso   1.000  H
  H491     1.0000 0.11639  0.13831  0.98822  Biso   1.000  H
  H492     1.0000 0.01481  0.03371  0.76071  Biso   1.000  H
  C425     1.0000 0.13046  0.21070  0.89801  Biso   1.000  C
  C426     1.0000 0.03935  0.14351  0.76911  Biso   1.000  C
  N71      1.0000 0.09604  0.21828  0.89642  Biso   1.000  N
  H493     1.0000 0.14160  0.23370  0.87038  Biso   1.000  H
  N72      1.0000 0.05497  0.19290  0.77013  Biso   1.000  N
  H494     1.0000 0.02160  0.13729  0.79459  Biso   1.000  H
  C427     1.0000 0.07804  0.26384  0.85330  Biso   1.000  C
  C428     1.0000 0.04352  0.23850  0.81018  Biso   1.000  C
  C429     1.0000 0.06699  0.31442  0.89208  Biso   1.000  C
  H495     1.0000 0.09590  0.27860  0.82782  Biso   1.000  H
  H496     1.0000 0.02670  0.22070  0.83589  Biso   1.000  H
  C430     1.0000 0.02271  0.28688  0.76887  Biso   1.000  C
  C431     1.0000 0.04600  0.36262  0.85059  Biso   1.000  C
  H497     1.0000 0.05110  0.29891  0.92008  Biso   1.000  H
  H498     1.0000 0.08969  0.33138  0.91850  Biso   1.000  H
  H499     1.0000 0.99970  0.27049  0.74302  Biso   1.000  H
  H500     1.0000 0.03848  0.30199  0.74050  Biso   1.000  H
  C432     1.0000 0.01259  0.33821  0.80929  Biso   1.000  C
  H501     1.0000 0.03840  0.39399  0.87701  Biso   1.000  H
  H502     1.0000 0.06250  0.38051  0.82511  Biso   1.000  H
  H503     1.0000 0.99509  0.32380  0.83482  Biso   1.000  H
  H504     1.0000 1.00000  0.36980  0.78161  Biso   1.000  H
  Ne1      1.0000 0.34856  0.49047  0.17441  Biso   1.000  Ne
  He1      1.0000 0.36305  0.40670  0.26817  Biso   1.000  He
  He2      1.0000 0.33086  0.60339  0.22481  Biso   1.000  He
  He3      1.0000 0.40813  0.51029  0.11146  Biso   1.000  He
  He4      1.0000 0.28280  0.45584  0.07501  Biso   1.000  He
  Ar1      1.0000 0.34737  0.49705  0.16943  Biso   1.000  Ar
  Ne2      1.0000 0.49999  0.05292  0.50000  Biso   1.000  Ne
  He5      1.0000 0.54293  0.11840  0.61075  Biso   1.000  He
  He6      1.0000 0.44768  0.97181  0.54837  Biso   1.000  He
  He7      1.0000 0.54909  0.97582  0.45474  Biso   1.000  He
  He8      1.0000 0.45818  0.11623  0.39234  Biso   1.000  He
  Ar2      1.0000 0.49999  0.03732  0.49999  Biso   1.000  Ar
  Ne3      1.0000 0.65143  0.49047  0.82559  Biso   1.000  Ne
  He9      1.0000 0.71268  0.45879  0.91815  Biso   1.000  He
  He10     1.0000 0.59173  0.51031  0.88866  Biso   1.000  He
  He11     1.0000 0.66812  0.59709  0.77843  Biso   1.000  He
  He12     1.0000 0.63609  0.40251  0.72690  Biso   1.000  He
  Ar3      1.0000 0.65209  0.49726  0.83032  Biso   1.000  Ar
  Ne4      1.0000 0.15143  0.99047  0.82559  Biso   1.000  Ne
  He13     1.0000 0.21268  0.95879  0.91816  Biso   1.000  He
  He14     1.0000 0.09173  0.01030  0.88864  Biso   1.000  He
  He15     1.0000 0.16811  0.09709  0.77843  Biso   1.000  He
  He16     1.0000 0.13609  0.90251  0.72690  Biso   1.000  He
  Ar4      1.0000 0.15228  0.99716  0.83021  Biso   1.000  Ar
  Ne5      1.0000 0.99999  0.55292  0.50000  Biso   1.000  Ne
  He17     1.0000 0.04294  0.61840  0.61074  Biso   1.000  He
  He18     1.0000 0.94770  0.47181  0.54837  Biso   1.000  He
  He19     1.0000 0.04910  0.47582  0.45473  Biso   1.000  He
  He20     1.0000 0.95818  0.61622  0.39234  Biso   1.000  He
  Ar5      1.0000 0.00000  0.53732  0.50001  Biso   1.000  Ar
  Ne6      1.0000 0.84856  0.99047  0.17441  Biso   1.000  Ne
  He21     1.0000 0.86304  0.90669  0.26816  Biso   1.000  He
  He22     1.0000 0.83210  0.09570  0.22084  Biso   1.000  He
  He23     1.0000 0.91520  0.01161  0.10462  Biso   1.000  He
  He24     1.0000 0.78210  0.95537  0.07396  Biso   1.000  He
  Ar6      1.0000 0.84776  0.99142  0.17365  Biso   1.000  Ar
