data_image0
_cell_length_a       54.999
_cell_length_b       11.292
_cell_length_c       19.954
_cell_angle_alpha    90
_cell_angle_beta     98.73
_cell_angle_gamma    90

_symmetry_space_group_name_H-M    "P 1"
_symmetry_int_tables_number       1

loop_
  _symmetry_equiv_pos_as_xyz
  'x, y, z'

loop_
  _atom_site_label
  _atom_site_occupancy
  _atom_site_fract_x
  _atom_site_fract_y
  _atom_site_fract_z
  _atom_site_thermal_displace_type
  _atom_site_B_iso_or_equiv
  _atom_site_type_symbol
  C1       1.0000 0.56808  0.74114  0.35461  Biso   1.000  C
  O1       1.0000 0.56885  0.86575  0.35238  Biso   1.000  O
  C2       1.0000 0.58006  0.69217  0.29798  Biso   1.000  C
  H1       1.0000 0.57680  0.71263  0.39868  Biso   1.000  H
  H2       1.0000 0.55079  0.71396  0.34990  Biso   1.000  H
  C3       1.0000 0.55561  0.92012  0.39949  Biso   1.000  C
  O2       1.0000 0.60566  0.71803  0.31157  Biso   1.000  O
  H3       1.0000 0.57269  0.72848  0.25438  Biso   1.000  H
  H4       1.0000 0.57749  0.60547  0.29458  Biso   1.000  H
  H5       1.0000 0.53780  0.90843  0.38478  Biso   1.000  H
  H6       1.0000 0.56009  0.88239  0.44451  Biso   1.000  H
  C4       1.0000 0.56096  0.04649  0.40491  Biso   1.000  C
  C5       1.0000 0.61982  0.67995  0.26492  Biso   1.000  C
  O3       1.0000 0.55334  0.10530  0.34371  Biso   1.000  O
  H7       1.0000 0.57889  0.05792  0.41850  Biso   1.000  H
  H8       1.0000 0.55250  0.08121  0.44071  Biso   1.000  H
  C6       1.0000 0.64500  0.68889  0.28252  Biso   1.000  C
  C7       1.0000 0.61020  0.63045  0.20261  Biso   1.000  C
  C8       1.0000 0.56031  0.23176  0.34949  Biso   1.000  C
  C9       1.0000 0.66071  0.64869  0.23947  Biso   1.000  C
  H9       1.0000 0.65170  0.72326  0.32480  Biso   1.000  H
  H10      1.0000 0.59290  0.62380  0.19019  Biso   1.000  H
  C10      1.0000 0.62572  0.59068  0.15819  Biso   1.000  C
  H11      1.0000 0.57778  0.23884  0.36967  Biso   1.000  H
  H12      1.0000 0.55030  0.27249  0.37961  Biso   1.000  H
  C11      1.0000 0.55660  0.28560  0.28541  Biso   1.000  C
  C12      1.0000 0.65119  0.59874  0.17690  Biso   1.000  C
  H13      1.0000 0.67799  0.65524  0.25250  Biso   1.000  H
  C13      1.0000 0.61511  0.53480  0.09294  Biso   1.000  C
  O4       1.0000 0.57284  0.24371  0.24231  Biso   1.000  O
  H14      1.0000 0.53949  0.27117  0.26360  Biso   1.000  H
  H15      1.0000 0.55880  0.37221  0.29108  Biso   1.000  H
  O5       1.0000 0.66494  0.55553  0.13081  Biso   1.000  O
  O6       1.0000 0.61968  0.61132  0.03732  Biso   1.000  O
  H16      1.0000 0.59721  0.52329  0.09142  Biso   1.000  H
  H17      1.0000 0.62280  0.45634  0.08868  Biso   1.000  H
  C14      1.0000 0.57238  0.31792  0.18542  Biso   1.000  C
  C15      1.0000 0.69107  0.55482  0.14902  Biso   1.000  C
  C16      1.0000 0.61562  0.55933  0.97764  Biso   1.000  C
  H18      1.0000 0.55510  0.33165  0.16438  Biso   1.000  H
  H19      1.0000 0.57969  0.39550  0.19997  Biso   1.000  H
  C17      1.0000 0.58635  0.26373  0.13401  Biso   1.000  C
  C18      1.0000 0.70136  0.50195  0.09020  Biso   1.000  C
  H20      1.0000 0.69730  0.63647  0.15779  Biso   1.000  H
  H21      1.0000 0.69590  0.50691  0.19039  Biso   1.000  H
  O7       1.0000 0.60643  0.46139  0.96862  Biso   1.000  O
  C19      1.0000 0.62327  0.62991  0.92116  Biso   1.000  C
  O8       1.0000 0.61178  0.26320  0.15885  Biso   1.000  O
  H22      1.0000 0.58329  0.30960  0.09132  Biso   1.000  H
  H23      1.0000 0.58060  0.18163  0.12422  Biso   1.000  H
  O9       1.0000 0.69835  0.58139  0.03493  Biso   1.000  O
  H24      1.0000 0.69281  0.42659  0.07651  Biso   1.000  H
  H25      1.0000 0.71910  0.48433  0.10389  Biso   1.000  H
  N1       1.0000 0.62677  0.74708  0.92861  Biso   1.000  N
  C20      1.0000 0.62548  0.56908  0.86189  Biso   1.000  C
  C21      1.0000 0.62740  0.22644  0.11530  Biso   1.000  C
  C22      1.0000 0.70649  0.53401  0.97597  Biso   1.000  C
  C23      1.0000 0.63194  0.80588  0.87421  Biso   1.000  C
  H26      1.0000 0.62278  0.48601  0.85905  Biso   1.000  H
  C24      1.0000 0.63161  0.63080  0.80743  Biso   1.000  C
  C25      1.0000 0.61961  0.18420  0.04989  Biso   1.000  C
  C26      1.0000 0.65239  0.23433  0.13887  Biso   1.000  C
  C27      1.0000 0.69943  0.61442  0.91715  Biso   1.000  C
  H27      1.0000 0.72459  0.52435  0.98433  Biso   1.000  H
  H28      1.0000 0.69898  0.45510  0.96567  Biso   1.000  H
  C28      1.0000 0.63449  0.75168  0.81346  Biso   1.000  C
  C29      1.0000 0.63417  0.93792  0.87715  Biso   1.000  C
  H29      1.0000 0.63379  0.59113  0.76687  Biso   1.000  H
  C30      1.0000 0.63661  0.15250  0.00862  Biso   1.000  C
  H30      1.0000 0.60250  0.17721  0.03362  Biso   1.000  H
  H31      1.0000 0.65779  0.26231  0.18349  Biso   1.000  H
  C31      1.0000 0.66959  0.20191  0.09826  Biso   1.000  C
  O10      1.0000 0.71216  0.72334  0.92734  Biso   1.000  O
  H32      1.0000 0.68148  0.62912  0.91117  Biso   1.000  H
  H33      1.0000 0.70337  0.57625  0.87547  Biso   1.000  H
  H34      1.0000 0.63819  0.79738  0.77635  Biso   1.000  H
  O11      1.0000 0.63880  0.99504  0.82944  Biso   1.000  O
  O12      1.0000 0.62949  0.98309  0.93469  Biso   1.000  O
  C32      1.0000 0.62849  0.11344  0.93713  Biso   1.000  C
  C33      1.0000 0.66186  0.16206  0.03250  Biso   1.000  C
  H35      1.0000 0.68671  0.20705  0.11530  Biso   1.000  H
  C34      1.0000 0.70631  0.80110  0.87137  Biso   1.000  C
  H36      1.0000 0.63938  0.14772  0.90706  Biso   1.000  H
  H37      1.0000 0.61148  0.14098  0.92136  Biso   1.000  H
  O13      1.0000 0.67677  0.12983  0.98763  Biso   1.000  O
  C35      1.0000 0.71856  0.91764  0.88638  Biso   1.000  C
  H38      1.0000 0.71178  0.76594  0.83075  Biso   1.000  H
  H39      1.0000 0.68828  0.81243  0.86153  Biso   1.000  H
  C36      1.0000 0.70274  0.13771  0.00801  Biso   1.000  C
  O14      1.0000 0.70884  0.96998  0.94134  Biso   1.000  O
  H40      1.0000 0.71548  0.96954  0.84597  Biso   1.000  H
  H41      1.0000 0.73658  0.90666  0.89844  Biso   1.000  H
  C37      1.0000 0.71468  0.09290  0.95036  Biso   1.000  C
  H42      1.0000 0.70761  0.22095  0.01841  Biso   1.000  H
  H43      1.0000 0.70781  0.08918  0.04908  Biso   1.000  H
  H44      1.0000 0.73268  0.10370  0.96065  Biso   1.000  H
  H45      1.0000 0.70848  0.13735  0.90843  Biso   1.000  H
  C38      1.0000 0.43189  0.25894  0.64539  Biso   1.000  C
  C39      1.0000 0.41992  0.30783  0.70198  Biso   1.000  C
  O15      1.0000 0.43114  0.13434  0.64757  Biso   1.000  O
  H46      1.0000 0.42319  0.28737  0.60128  Biso   1.000  H
  H47      1.0000 0.44919  0.28613  0.65006  Biso   1.000  H
  O16      1.0000 0.39431  0.28197  0.68839  Biso   1.000  O
  H48      1.0000 0.42728  0.27152  0.74558  Biso   1.000  H
  H49      1.0000 0.42249  0.39453  0.70538  Biso   1.000  H
  C40      1.0000 0.44438  0.07988  0.60047  Biso   1.000  C
  C41      1.0000 0.38017  0.32014  0.73504  Biso   1.000  C
  H50      1.0000 0.46219  0.09157  0.61518  Biso   1.000  H
  H51      1.0000 0.43989  0.11761  0.55550  Biso   1.000  H
  C42      1.0000 0.43901  0.95351  0.59510  Biso   1.000  C
  C43      1.0000 0.35497  0.31111  0.71744  Biso   1.000  C
  C44      1.0000 0.38979  0.36964  0.79740  Biso   1.000  C
  O17      1.0000 0.44664  0.89470  0.65630  Biso   1.000  O
  H52      1.0000 0.42108  0.94208  0.58146  Biso   1.000  H
  H53      1.0000 0.44750  0.91879  0.55930  Biso   1.000  H
  C45      1.0000 0.33928  0.35131  0.76049  Biso   1.000  C
  H54      1.0000 0.34829  0.27683  0.67516  Biso   1.000  H
  C46      1.0000 0.37427  0.40932  0.84177  Biso   1.000  C
  H55      1.0000 0.40709  0.37620  0.80977  Biso   1.000  H
  C47      1.0000 0.43966  0.76833  0.65046  Biso   1.000  C
  C48      1.0000 0.34878  0.40135  0.82306  Biso   1.000  C
  H56      1.0000 0.32198  0.34485  0.74746  Biso   1.000  H
  C49      1.0000 0.38488  0.46520  0.90702  Biso   1.000  C
  H57      1.0000 0.42219  0.76116  0.63028  Biso   1.000  H
  H58      1.0000 0.44970  0.72751  0.62040  Biso   1.000  H
  C50      1.0000 0.44338  0.71440  0.71460  Biso   1.000  C
  O18      1.0000 0.33505  0.44447  0.86915  Biso   1.000  O
  O19      1.0000 0.38029  0.38868  0.96264  Biso   1.000  O
  H59      1.0000 0.40278  0.47671  0.90859  Biso   1.000  H
  H60      1.0000 0.37719  0.54375  0.91128  Biso   1.000  H
  O20      1.0000 0.42715  0.75629  0.75770  Biso   1.000  O
  H61      1.0000 0.46048  0.72892  0.73635  Biso   1.000  H
  H62      1.0000 0.44119  0.62779  0.70887  Biso   1.000  H
  C51      1.0000 0.30892  0.44518  0.85099  Biso   1.000  C
  C52      1.0000 0.38436  0.44067  0.02232  Biso   1.000  C
  C53      1.0000 0.42761  0.68208  0.81459  Biso   1.000  C
  C54      1.0000 0.29861  0.49814  0.90976  Biso   1.000  C
  H63      1.0000 0.30269  0.36353  0.84217  Biso   1.000  H
  H64      1.0000 0.30408  0.49309  0.80957  Biso   1.000  H
  O21      1.0000 0.39356  0.53861  0.03134  Biso   1.000  O
  C55      1.0000 0.37672  0.37009  0.07885  Biso   1.000  C
  H65      1.0000 0.44489  0.66844  0.83558  Biso   1.000  H
  H66      1.0000 0.42028  0.60450  0.79999  Biso   1.000  H
  C56      1.0000 0.41362  0.73627  0.86595  Biso   1.000  C
  O22      1.0000 0.30162  0.41861  0.96502  Biso   1.000  O
  H67      1.0000 0.30719  0.57341  0.92350  Biso   1.000  H
  H68      1.0000 0.28087  0.51567  0.89607  Biso   1.000  H
  N2       1.0000 0.37320  0.25292  0.07135  Biso   1.000  N
  C57      1.0000 0.37449  0.43092  0.13807  Biso   1.000  C
  O23      1.0000 0.38820  0.73680  0.84111  Biso   1.000  O
  H69      1.0000 0.41668  0.69040  0.90869  Biso   1.000  H
  H70      1.0000 0.41938  0.81837  0.87579  Biso   1.000  H
  C58      1.0000 0.29350  0.46599  0.02404  Biso   1.000  C
  C59      1.0000 0.36803  0.19412  0.12575  Biso   1.000  C
  H71      1.0000 0.37720  0.51399  0.14091  Biso   1.000  H
  C60      1.0000 0.36836  0.36920  0.19253  Biso   1.000  C
  C61      1.0000 0.37258  0.77356  0.88466  Biso   1.000  C
  C62      1.0000 0.30054  0.38558  0.08281  Biso   1.000  C
  H72      1.0000 0.27540  0.47574  0.01563  Biso   1.000  H
  H73      1.0000 0.30100  0.54490  0.03433  Biso   1.000  H
  C63      1.0000 0.36549  0.24832  0.18649  Biso   1.000  C
  C64      1.0000 0.36582  0.06208  0.12286  Biso   1.000  C
  H74      1.0000 0.36620  0.40887  0.23314  Biso   1.000  H
  C65      1.0000 0.38038  0.81580  0.95007  Biso   1.000  C
  C66      1.0000 0.34761  0.76567  0.86113  Biso   1.000  C
  O24      1.0000 0.28782  0.27674  0.07267  Biso   1.000  O
  H75      1.0000 0.31851  0.37088  0.08884  Biso   1.000  H
  H76      1.0000 0.29660  0.42384  0.12453  Biso   1.000  H
  H77      1.0000 0.36180  0.20262  0.22361  Biso   1.000  H
  O25      1.0000 0.36119  0.00496  0.17052  Biso   1.000  O
  O26      1.0000 0.37048  0.01691  0.06526  Biso   1.000  O
  C67      1.0000 0.36336  0.84750  0.99134  Biso   1.000  C
  H78      1.0000 0.39748  0.82279  0.96639  Biso   1.000  H
  C68      1.0000 0.33039  0.79809  0.90175  Biso   1.000  C
  H79      1.0000 0.34218  0.73769  0.81647  Biso   1.000  H
  C69      1.0000 0.29366  0.19890  0.12864  Biso   1.000  C
  C70      1.0000 0.37150  0.88656  0.06283  Biso   1.000  C
  C71      1.0000 0.33812  0.83803  0.96746  Biso   1.000  C
  H80      1.0000 0.31328  0.79304  0.88466  Biso   1.000  H
  C72      1.0000 0.28144  0.08236  0.11363  Biso   1.000  C
  H81      1.0000 0.28821  0.23415  0.16920  Biso   1.000  H
  H82      1.0000 0.31169  0.18757  0.13843  Biso   1.000  H
  H83      1.0000 0.36061  0.85228  0.09290  Biso   1.000  H
  H84      1.0000 0.38849  0.85902  0.07860  Biso   1.000  H
  O27      1.0000 0.32320  0.87017  0.01233  Biso   1.000  O
  O28      1.0000 0.29113  0.03002  0.05862  Biso   1.000  O
  H85      1.0000 0.28450  0.03046  0.15399  Biso   1.000  H
  H86      1.0000 0.26341  0.09343  0.10152  Biso   1.000  H
  C73      1.0000 0.29725  0.86229  0.99195  Biso   1.000  C
  C74      1.0000 0.28531  0.90710  0.04960  Biso   1.000  C
  H87      1.0000 0.29238  0.77914  0.98155  Biso   1.000  H
  H88      1.0000 0.29218  0.91082  0.95088  Biso   1.000  H
  H89      1.0000 0.26731  0.89630  0.03930  Biso   1.000  H
  H90      1.0000 0.29149  0.86273  0.09153  Biso   1.000  H
  O29      1.0000 0.60644  0.53861  0.46864  Biso   1.000  O
  C75      1.0000 0.61562  0.44067  0.47767  Biso   1.000  C
  O30      1.0000 0.61969  0.38868  0.53730  Biso   1.000  O
  C76      1.0000 0.62328  0.37009  0.42119  Biso   1.000  C
  C77      1.0000 0.61510  0.46520  0.59292  Biso   1.000  C
  N3       1.0000 0.62678  0.25292  0.42864  Biso   1.000  N
  C78      1.0000 0.62549  0.43092  0.36192  Biso   1.000  C
  C79      1.0000 0.62571  0.40932  0.65817  Biso   1.000  C
  H91      1.0000 0.59719  0.47671  0.59140  Biso   1.000  H
  H92      1.0000 0.62279  0.54375  0.58871  Biso   1.000  H
  C80      1.0000 0.63195  0.19412  0.37424  Biso   1.000  C
  H93      1.0000 0.62278  0.51399  0.35908  Biso   1.000  H
  C81      1.0000 0.63162  0.36920  0.30751  Biso   1.000  C
  C82      1.0000 0.65119  0.40135  0.67688  Biso   1.000  C
  C83      1.0000 0.61019  0.36964  0.70259  Biso   1.000  C
  C84      1.0000 0.63451  0.24832  0.31349  Biso   1.000  C
  C85      1.0000 0.63418  0.06208  0.37718  Biso   1.000  C
  H94      1.0000 0.63380  0.40887  0.26690  Biso   1.000  H
  O31      1.0000 0.66493  0.44447  0.63079  Biso   1.000  O
  C86      1.0000 0.66069  0.35131  0.73945  Biso   1.000  C
  C87      1.0000 0.61980  0.32014  0.76490  Biso   1.000  C
  H95      1.0000 0.59289  0.37620  0.69016  Biso   1.000  H
  H96      1.0000 0.63819  0.20262  0.27638  Biso   1.000  H
  O32      1.0000 0.63881  0.00496  0.32947  Biso   1.000  O
  O33      1.0000 0.62950  0.01691  0.43472  Biso   1.000  O
  C88      1.0000 0.69106  0.44518  0.64899  Biso   1.000  C
  H97      1.0000 0.67799  0.34485  0.75248  Biso   1.000  H
  C89      1.0000 0.64499  0.31111  0.78249  Biso   1.000  C
  O34      1.0000 0.60566  0.28197  0.81155  Biso   1.000  O
  C90      1.0000 0.62850  0.88656  0.43721  Biso   1.000  C
  C91      1.0000 0.70137  0.49814  0.59018  Biso   1.000  C
  H98      1.0000 0.69729  0.36353  0.65777  Biso   1.000  H
  H99      1.0000 0.69588  0.49309  0.69037  Biso   1.000  H
  H100     1.0000 0.65168  0.27683  0.82478  Biso   1.000  H
  C92      1.0000 0.58006  0.30783  0.79796  Biso   1.000  C
  H101     1.0000 0.63939  0.85228  0.40709  Biso   1.000  H
  H102     1.0000 0.61149  0.85902  0.42139  Biso   1.000  H
  C93      1.0000 0.63662  0.84750  0.50860  Biso   1.000  C
  O35      1.0000 0.69834  0.41861  0.53496  Biso   1.000  O
  H103     1.0000 0.69279  0.57341  0.57649  Biso   1.000  H
  H104     1.0000 0.71908  0.51567  0.60387  Biso   1.000  H
  H105     1.0000 0.57268  0.27152  0.75435  Biso   1.000  H
  H106     1.0000 0.57749  0.39453  0.79456  Biso   1.000  H
  C94      1.0000 0.56807  0.25894  0.85459  Biso   1.000  C
  C95      1.0000 0.61960  0.81580  0.54987  Biso   1.000  C
  C96      1.0000 0.66185  0.83803  0.53253  Biso   1.000  C
  C97      1.0000 0.70650  0.46599  0.47600  Biso   1.000  C
  O36      1.0000 0.56884  0.13434  0.85236  Biso   1.000  O
  H107     1.0000 0.57679  0.28737  0.89865  Biso   1.000  H
  H108     1.0000 0.55079  0.28613  0.84988  Biso   1.000  H
  H109     1.0000 0.60248  0.82279  0.53359  Biso   1.000  H
  C98      1.0000 0.62738  0.77356  0.61528  Biso   1.000  C
  O37      1.0000 0.67677  0.87017  0.48766  Biso   1.000  O
  C99      1.0000 0.66957  0.79809  0.59824  Biso   1.000  C
  C100     1.0000 0.69946  0.38558  0.41718  Biso   1.000  C
  H110     1.0000 0.72459  0.47574  0.48436  Biso   1.000  H
  H111     1.0000 0.69898  0.54490  0.46570  Biso   1.000  H
  C101     1.0000 0.55559  0.07988  0.89947  Biso   1.000  C
  O38      1.0000 0.61176  0.73680  0.65883  Biso   1.000  O
  C102     1.0000 0.65237  0.76567  0.63885  Biso   1.000  C
  C103     1.0000 0.70273  0.86229  0.50799  Biso   1.000  C
  H112     1.0000 0.68669  0.79304  0.61528  Biso   1.000  H
  O39      1.0000 0.71216  0.27674  0.42737  Biso   1.000  O
  H113     1.0000 0.68149  0.37088  0.41120  Biso   1.000  H
  H114     1.0000 0.70340  0.42384  0.37550  Biso   1.000  H
  H115     1.0000 0.53778  0.09157  0.88476  Biso   1.000  H
  H116     1.0000 0.56009  0.11761  0.94449  Biso   1.000  H
  C104     1.0000 0.56095  0.95351  0.90489  Biso   1.000  C
  C105     1.0000 0.58634  0.73627  0.63399  Biso   1.000  C
  H117     1.0000 0.65779  0.73769  0.68347  Biso   1.000  H
  H118     1.0000 0.70759  0.77914  0.51838  Biso   1.000  H
  H119     1.0000 0.70779  0.91082  0.54906  Biso   1.000  H
  C106     1.0000 0.71469  0.90710  0.45039  Biso   1.000  C
  C107     1.0000 0.70632  0.19890  0.37140  Biso   1.000  C
  O40      1.0000 0.55334  0.89470  0.84369  Biso   1.000  O
  H120     1.0000 0.57888  0.94208  0.91848  Biso   1.000  H
  H121     1.0000 0.55248  0.91879  0.94069  Biso   1.000  H
  C108     1.0000 0.57237  0.68208  0.68540  Biso   1.000  C
  H122     1.0000 0.58330  0.69040  0.59129  Biso   1.000  H
  H123     1.0000 0.58058  0.81837  0.62420  Biso   1.000  H
  O41      1.0000 0.70885  0.03002  0.44142  Biso   1.000  O
  H124     1.0000 0.73269  0.89630  0.46068  Biso   1.000  H
  H125     1.0000 0.70849  0.86273  0.40851  Biso   1.000  H
  C109     1.0000 0.71856  0.08236  0.38641  Biso   1.000  C
  H126     1.0000 0.71179  0.23415  0.33078  Biso   1.000  H
  H127     1.0000 0.68829  0.18757  0.36161  Biso   1.000  H
  C110     1.0000 0.56030  0.76833  0.84947  Biso   1.000  C
  O42      1.0000 0.57283  0.75629  0.74229  Biso   1.000  O
  H128     1.0000 0.55508  0.66844  0.66436  Biso   1.000  H
  H129     1.0000 0.57968  0.60450  0.70000  Biso   1.000  H
  H130     1.0000 0.71550  0.03046  0.34600  Biso   1.000  H
  H131     1.0000 0.73659  0.09343  0.39847  Biso   1.000  H
  H132     1.0000 0.57779  0.76116  0.86965  Biso   1.000  H
  H133     1.0000 0.55028  0.72751  0.87959  Biso   1.000  H
  C111     1.0000 0.55660  0.71440  0.78538  Biso   1.000  C
  H134     1.0000 0.53949  0.72892  0.76358  Biso   1.000  H
  H135     1.0000 0.55879  0.62779  0.79106  Biso   1.000  H
  O43      1.0000 0.39355  0.46139  0.53131  Biso   1.000  O
  C112     1.0000 0.38435  0.55933  0.52229  Biso   1.000  C
  O44      1.0000 0.38030  0.61132  0.46266  Biso   1.000  O
  C113     1.0000 0.37671  0.62991  0.57877  Biso   1.000  C
  C114     1.0000 0.38488  0.53480  0.40704  Biso   1.000  C
  N4       1.0000 0.37319  0.74708  0.57132  Biso   1.000  N
  C115     1.0000 0.37449  0.56908  0.63804  Biso   1.000  C
  C116     1.0000 0.37428  0.59068  0.34179  Biso   1.000  C
  H136     1.0000 0.40280  0.52329  0.40861  Biso   1.000  H
  H137     1.0000 0.37720  0.45634  0.41130  Biso   1.000  H
  C117     1.0000 0.36803  0.80588  0.62572  Biso   1.000  C
  H138     1.0000 0.37719  0.48601  0.64088  Biso   1.000  H
  C118     1.0000 0.36836  0.63080  0.69250  Biso   1.000  C
  C119     1.0000 0.34880  0.59874  0.32308  Biso   1.000  C
  C120     1.0000 0.38980  0.63045  0.29742  Biso   1.000  C
  C121     1.0000 0.36548  0.75168  0.68646  Biso   1.000  C
  C122     1.0000 0.36579  0.93792  0.62278  Biso   1.000  C
  H139     1.0000 0.36619  0.59113  0.73306  Biso   1.000  H
  O45      1.0000 0.33504  0.55553  0.36917  Biso   1.000  O
  C123     1.0000 0.33928  0.64869  0.26051  Biso   1.000  C
  C124     1.0000 0.38017  0.67995  0.23506  Biso   1.000  C
  H140     1.0000 0.40710  0.62380  0.30979  Biso   1.000  H
  H141     1.0000 0.36178  0.79738  0.72358  Biso   1.000  H
  O46      1.0000 0.36118  0.99504  0.67049  Biso   1.000  O
  O47      1.0000 0.37048  0.98309  0.56523  Biso   1.000  O
  C125     1.0000 0.30892  0.55482  0.35101  Biso   1.000  C
  H142     1.0000 0.32200  0.65524  0.24748  Biso   1.000  H
  C126     1.0000 0.35498  0.68889  0.21746  Biso   1.000  C
  O48      1.0000 0.39433  0.71803  0.18841  Biso   1.000  O
  C127     1.0000 0.37149  0.11344  0.56280  Biso   1.000  C
  C128     1.0000 0.29862  0.50195  0.40978  Biso   1.000  C
  H143     1.0000 0.30268  0.63647  0.34219  Biso   1.000  H
  H144     1.0000 0.30409  0.50691  0.30959  Biso   1.000  H
  H145     1.0000 0.34829  0.72326  0.17518  Biso   1.000  H
  C129     1.0000 0.41993  0.69217  0.20200  Biso   1.000  C
  C130     1.0000 0.36337  0.15250  0.49136  Biso   1.000  C
  H146     1.0000 0.36058  0.14772  0.59287  Biso   1.000  H
  H147     1.0000 0.38848  0.14098  0.57857  Biso   1.000  H
  O49      1.0000 0.30163  0.58139  0.46504  Biso   1.000  O
  H148     1.0000 0.30720  0.42659  0.42347  Biso   1.000  H
  H149     1.0000 0.28089  0.48433  0.39609  Biso   1.000  H
  H150     1.0000 0.42730  0.72848  0.24560  Biso   1.000  H
  H151     1.0000 0.42250  0.60547  0.20540  Biso   1.000  H
  C131     1.0000 0.43191  0.74114  0.14542  Biso   1.000  C
  C132     1.0000 0.33813  0.16206  0.46748  Biso   1.000  C
  C133     1.0000 0.38037  0.18420  0.45009  Biso   1.000  C
  C134     1.0000 0.29349  0.53401  0.52396  Biso   1.000  C
  O50      1.0000 0.43115  0.86575  0.14760  Biso   1.000  O
  H152     1.0000 0.42320  0.71263  0.10130  Biso   1.000  H
  H153     1.0000 0.44920  0.71396  0.15008  Biso   1.000  H
  O51      1.0000 0.32320  0.12983  0.51230  Biso   1.000  O
  C135     1.0000 0.33040  0.20191  0.40172  Biso   1.000  C
  H154     1.0000 0.39749  0.17721  0.46636  Biso   1.000  H
  C136     1.0000 0.37259  0.22644  0.38468  Biso   1.000  C
  C137     1.0000 0.30053  0.61442  0.58278  Biso   1.000  C
  H155     1.0000 0.27540  0.52435  0.51560  Biso   1.000  H
  H156     1.0000 0.30099  0.45510  0.53430  Biso   1.000  H
  C138     1.0000 0.44440  0.92012  0.10049  Biso   1.000  C
  C139     1.0000 0.29724  0.13771  0.49197  Biso   1.000  C
  C140     1.0000 0.34762  0.23433  0.36116  Biso   1.000  C
  H157     1.0000 0.31330  0.20705  0.38468  Biso   1.000  H
  O52      1.0000 0.38821  0.26320  0.34113  Biso   1.000  O
  O53      1.0000 0.28781  0.72334  0.57264  Biso   1.000  O
  H158     1.0000 0.31848  0.62912  0.58876  Biso   1.000  H
  H159     1.0000 0.29659  0.57625  0.62450  Biso   1.000  H
  H160     1.0000 0.46221  0.90843  0.11520  Biso   1.000  H
  H161     1.0000 0.43990  0.88239  0.05552  Biso   1.000  H
  C141     1.0000 0.43903  0.04649  0.09512  Biso   1.000  C
  C142     1.0000 0.28530  0.09290  0.54957  Biso   1.000  C
  H162     1.0000 0.29240  0.22095  0.48157  Biso   1.000  H
  H163     1.0000 0.29220  0.08918  0.45090  Biso   1.000  H
  H164     1.0000 0.34220  0.26231  0.31649  Biso   1.000  H
  C143     1.0000 0.41363  0.26373  0.36597  Biso   1.000  C
  C144     1.0000 0.29365  0.80110  0.62856  Biso   1.000  C
  O54      1.0000 0.44665  0.10530  0.15632  Biso   1.000  O
  H165     1.0000 0.42109  0.05792  0.08148  Biso   1.000  H
  H166     1.0000 0.44749  0.08121  0.05932  Biso   1.000  H
  O55      1.0000 0.29113  0.96998  0.55859  Biso   1.000  O
  H167     1.0000 0.26728  0.10370  0.53927  Biso   1.000  H
  H168     1.0000 0.29149  0.13735  0.59150  Biso   1.000  H
  C145     1.0000 0.42762  0.31792  0.31461  Biso   1.000  C
  H169     1.0000 0.41669  0.30960  0.40866  Biso   1.000  H
  H170     1.0000 0.41939  0.18163  0.37581  Biso   1.000  H
  C146     1.0000 0.28141  0.91764  0.61360  Biso   1.000  C
  H171     1.0000 0.28818  0.76594  0.66917  Biso   1.000  H
  H172     1.0000 0.31169  0.81243  0.63840  Biso   1.000  H
  C147     1.0000 0.43968  0.23176  0.15049  Biso   1.000  C
  O56      1.0000 0.42716  0.24371  0.25767  Biso   1.000  O
  H173     1.0000 0.44489  0.33165  0.33560  Biso   1.000  H
  H174     1.0000 0.42029  0.39550  0.30001  Biso   1.000  H
  H175     1.0000 0.28449  0.96954  0.65396  Biso   1.000  H
  H176     1.0000 0.26338  0.90666  0.60149  Biso   1.000  H
  H177     1.0000 0.42220  0.23884  0.13031  Biso   1.000  H
  H178     1.0000 0.44969  0.27249  0.12042  Biso   1.000  H
  C148     1.0000 0.44339  0.28560  0.21457  Biso   1.000  C
  H179     1.0000 0.46050  0.27117  0.23638  Biso   1.000  H
  H180     1.0000 0.44120  0.37221  0.20890  Biso   1.000  H
  C149     1.0000 0.78142  0.41764  0.61360  Biso   1.000  C
  O57      1.0000 0.79114  0.46998  0.55859  Biso   1.000  O
  H181     1.0000 0.78448  0.46954  0.65396  Biso   1.000  H
  H182     1.0000 0.76339  0.40657  0.60149  Biso   1.000  H
  C150     1.0000 0.79366  0.30110  0.62856  Biso   1.000  C
  C151     1.0000 0.78529  0.59290  0.54957  Biso   1.000  C
  O58      1.0000 0.78780  0.22334  0.57264  Biso   1.000  O
  H183     1.0000 0.78819  0.26594  0.66917  Biso   1.000  H
  H184     1.0000 0.81170  0.31243  0.63840  Biso   1.000  H
  C152     1.0000 0.79725  0.63771  0.49197  Biso   1.000  C
  H185     1.0000 0.76729  0.60370  0.53927  Biso   1.000  H
  H186     1.0000 0.79149  0.63735  0.59150  Biso   1.000  H
  C153     1.0000 0.80052  0.11442  0.58278  Biso   1.000  C
  O59      1.0000 0.82321  0.62983  0.51230  Biso   1.000  O
  H187     1.0000 0.79239  0.72095  0.48157  Biso   1.000  H
  H188     1.0000 0.79219  0.58918  0.45090  Biso   1.000  H
  H189     1.0000 0.81849  0.12912  0.58876  Biso   1.000  H
  H190     1.0000 0.79658  0.07616  0.62450  Biso   1.000  H
  C154     1.0000 0.79348  0.03401  0.52396  Biso   1.000  C
  C155     1.0000 0.83814  0.66197  0.46748  Biso   1.000  C
  O60      1.0000 0.80164  0.08139  0.46504  Biso   1.000  O
  H191     1.0000 0.77539  0.02426  0.51560  Biso   1.000  H
  H192     1.0000 0.80100  0.95510  0.53430  Biso   1.000  H
  C156     1.0000 0.86336  0.65250  0.49136  Biso   1.000  C
  C157     1.0000 0.83041  0.70191  0.40172  Biso   1.000  C
  C158     1.0000 0.79862  0.00186  0.40978  Biso   1.000  C
  C159     1.0000 0.87148  0.61344  0.56280  Biso   1.000  C
  C160     1.0000 0.88038  0.68420  0.45009  Biso   1.000  C
  C161     1.0000 0.84761  0.73433  0.36116  Biso   1.000  C
  H193     1.0000 0.81329  0.70705  0.38468  Biso   1.000  H
  C162     1.0000 0.80893  0.05482  0.35101  Biso   1.000  C
  H194     1.0000 0.80719  0.92659  0.42347  Biso   1.000  H
  H195     1.0000 0.78090  0.98433  0.39609  Biso   1.000  H
  O61      1.0000 0.87049  0.48309  0.56523  Biso   1.000  O
  H196     1.0000 0.86059  0.64772  0.59287  Biso   1.000  H
  H197     1.0000 0.88849  0.64098  0.57857  Biso   1.000  H
  H198     1.0000 0.89750  0.67721  0.46636  Biso   1.000  H
  C163     1.0000 0.87260  0.72644  0.38468  Biso   1.000  C
  H199     1.0000 0.84219  0.76231  0.31649  Biso   1.000  H
  O62      1.0000 0.83505  0.05553  0.36917  Biso   1.000  O
  H200     1.0000 0.80269  0.13647  0.34219  Biso   1.000  H
  H201     1.0000 0.80410  0.00691  0.30959  Biso   1.000  H
  C164     1.0000 0.86580  0.43792  0.62278  Biso   1.000  C
  O63      1.0000 0.88822  0.76320  0.34113  Biso   1.000  O
  C165     1.0000 0.84879  0.09874  0.32308  Biso   1.000  C
  O64      1.0000 0.86117  0.49504  0.67049  Biso   1.000  O
  C166     1.0000 0.86803  0.30588  0.62572  Biso   1.000  C
  C167     1.0000 0.91362  0.76373  0.36597  Biso   1.000  C
  C168     1.0000 0.83929  0.14869  0.26051  Biso   1.000  C
  C169     1.0000 0.87427  0.09068  0.34179  Biso   1.000  C
  N5       1.0000 0.87320  0.24708  0.57132  Biso   1.000  N
  C170     1.0000 0.86547  0.25168  0.68646  Biso   1.000  C
  C171     1.0000 0.92761  0.81792  0.31461  Biso   1.000  C
  H202     1.0000 0.91668  0.80960  0.40866  Biso   1.000  H
  H203     1.0000 0.91940  0.68163  0.37581  Biso   1.000  H
  H204     1.0000 0.82199  0.15524  0.24748  Biso   1.000  H
  C172     1.0000 0.85499  0.18889  0.21746  Biso   1.000  C
  C173     1.0000 0.88979  0.13045  0.29742  Biso   1.000  C
  C174     1.0000 0.88488  0.03480  0.40704  Biso   1.000  C
  C175     1.0000 0.87670  0.12991  0.57877  Biso   1.000  C
  C176     1.0000 0.86837  0.13080  0.69250  Biso   1.000  C
  H205     1.0000 0.86179  0.29738  0.72358  Biso   1.000  H
  O65      1.0000 0.92715  0.74371  0.25767  Biso   1.000  O
  H206     1.0000 0.94490  0.83165  0.33560  Biso   1.000  H
  H207     1.0000 0.92030  0.89550  0.30001  Biso   1.000  H
  H208     1.0000 0.84830  0.22317  0.17518  Biso   1.000  H
  C177     1.0000 0.88018  0.17986  0.23506  Biso   1.000  C
  H209     1.0000 0.90709  0.12380  0.30979  Biso   1.000  H
  O66      1.0000 0.88029  0.11132  0.46266  Biso   1.000  O
  H210     1.0000 0.90279  0.02329  0.40861  Biso   1.000  H
  H211     1.0000 0.87719  0.95634  0.41130  Biso   1.000  H
  C178     1.0000 0.87450  0.06908  0.63804  Biso   1.000  C
  C179     1.0000 0.88436  0.05933  0.52229  Biso   1.000  C
  H212     1.0000 0.86618  0.09113  0.73306  Biso   1.000  H
  C180     1.0000 0.94338  0.78560  0.21457  Biso   1.000  C
  O67      1.0000 0.89432  0.21803  0.18841  Biso   1.000  O
  H213     1.0000 0.87718  0.98601  0.64088  Biso   1.000  H
  O68      1.0000 0.89355  0.96139  0.53131  Biso   1.000  O
  C181     1.0000 0.93969  0.73176  0.15049  Biso   1.000  C
  H214     1.0000 0.96049  0.77108  0.23638  Biso   1.000  H
  H215     1.0000 0.94119  0.87221  0.20890  Biso   1.000  H
  C182     1.0000 0.91992  0.19217  0.20200  Biso   1.000  C
  O69      1.0000 0.94664  0.60530  0.15632  Biso   1.000  O
  H216     1.0000 0.92219  0.73884  0.13031  Biso   1.000  H
  H217     1.0000 0.94970  0.77249  0.12042  Biso   1.000  H
  H218     1.0000 0.92730  0.22848  0.24560  Biso   1.000  H
  H219     1.0000 0.92249  0.10547  0.20540  Biso   1.000  H
  C183     1.0000 0.93192  0.24114  0.14542  Biso   1.000  C
  C184     1.0000 0.93904  0.54649  0.09512  Biso   1.000  C
  O70      1.0000 0.93114  0.36575  0.14760  Biso   1.000  O
  H220     1.0000 0.92320  0.21263  0.10130  Biso   1.000  H
  H221     1.0000 0.94919  0.21387  0.15008  Biso   1.000  H
  C185     1.0000 0.94439  0.42012  0.10049  Biso   1.000  C
  H222     1.0000 0.92110  0.55792  0.08148  Biso   1.000  H
  H223     1.0000 0.94750  0.58121  0.05932  Biso   1.000  H
  H224     1.0000 0.96220  0.40843  0.11520  Biso   1.000  H
  H225     1.0000 0.93989  0.38239  0.05552  Biso   1.000  H
  C186     1.0000 0.21857  0.58245  0.38641  Biso   1.000  C
  O71      1.0000 0.20886  0.53002  0.44142  Biso   1.000  O
  H226     1.0000 0.21549  0.53055  0.34600  Biso   1.000  H
  H227     1.0000 0.23658  0.59343  0.39847  Biso   1.000  H
  C187     1.0000 0.20633  0.69890  0.37140  Biso   1.000  C
  C188     1.0000 0.21468  0.40710  0.45039  Biso   1.000  C
  O72      1.0000 0.21217  0.77674  0.42737  Biso   1.000  O
  H228     1.0000 0.21180  0.73415  0.33078  Biso   1.000  H
  H229     1.0000 0.18830  0.68765  0.36161  Biso   1.000  H
  C189     1.0000 0.20272  0.36229  0.50799  Biso   1.000  C
  H230     1.0000 0.23270  0.39630  0.46068  Biso   1.000  H
  H231     1.0000 0.20850  0.36273  0.40851  Biso   1.000  H
  C190     1.0000 0.19945  0.88558  0.41718  Biso   1.000  C
  O73      1.0000 0.17678  0.37017  0.48766  Biso   1.000  O
  H232     1.0000 0.20759  0.27914  0.51838  Biso   1.000  H
  H233     1.0000 0.20778  0.41082  0.54906  Biso   1.000  H
  H234     1.0000 0.18150  0.87088  0.41120  Biso   1.000  H
  H235     1.0000 0.20339  0.92384  0.37550  Biso   1.000  H
  C191     1.0000 0.20649  0.96599  0.47600  Biso   1.000  C
  C192     1.0000 0.16185  0.33803  0.53253  Biso   1.000  C
  O74      1.0000 0.19835  0.91861  0.53496  Biso   1.000  O
  H236     1.0000 0.22458  0.97574  0.48436  Biso   1.000  H
  H237     1.0000 0.19899  0.04490  0.46570  Biso   1.000  H
  C193     1.0000 0.13661  0.34750  0.50860  Biso   1.000  C
  C194     1.0000 0.16958  0.29809  0.59824  Biso   1.000  C
  C195     1.0000 0.20136  0.99814  0.59018  Biso   1.000  C
  C196     1.0000 0.12850  0.38665  0.43721  Biso   1.000  C
  C197     1.0000 0.11959  0.31580  0.54987  Biso   1.000  C
  C198     1.0000 0.15236  0.26567  0.63885  Biso   1.000  C
  H238     1.0000 0.18668  0.29304  0.61528  Biso   1.000  H
  C199     1.0000 0.19105  0.94518  0.64899  Biso   1.000  C
  H239     1.0000 0.19278  0.07341  0.57649  Biso   1.000  H
  H240     1.0000 0.21909  0.01567  0.60387  Biso   1.000  H
  O75      1.0000 0.12950  0.51691  0.43472  Biso   1.000  O
  H241     1.0000 0.13940  0.35228  0.40709  Biso   1.000  H
  H242     1.0000 0.11150  0.35902  0.42139  Biso   1.000  H
  H243     1.0000 0.10249  0.32279  0.53359  Biso   1.000  H
  C200     1.0000 0.12739  0.27365  0.61528  Biso   1.000  C
  H244     1.0000 0.15778  0.23769  0.68347  Biso   1.000  H
  O76      1.0000 0.16492  0.94447  0.63079  Biso   1.000  O
  H245     1.0000 0.19728  0.86353  0.65777  Biso   1.000  H
  H246     1.0000 0.19589  0.99309  0.69037  Biso   1.000  H
  C201     1.0000 0.13419  0.56208  0.37718  Biso   1.000  C
  O77      1.0000 0.11177  0.23680  0.65883  Biso   1.000  O
  C202     1.0000 0.15118  0.90135  0.67688  Biso   1.000  C
  O78      1.0000 0.13880  0.50505  0.32947  Biso   1.000  O
  C203     1.0000 0.13196  0.69412  0.37424  Biso   1.000  C
  C204     1.0000 0.08635  0.23627  0.63399  Biso   1.000  C
  C205     1.0000 0.16070  0.85131  0.73945  Biso   1.000  C
  C206     1.0000 0.12570  0.90932  0.65817  Biso   1.000  C
  N6       1.0000 0.12679  0.75292  0.42864  Biso   1.000  N
  C207     1.0000 0.13450  0.74832  0.31349  Biso   1.000  C
  C208     1.0000 0.07236  0.18208  0.68540  Biso   1.000  C
  H247     1.0000 0.08329  0.19040  0.59129  Biso   1.000  H
  H248     1.0000 0.08059  0.31837  0.62420  Biso   1.000  H
  H249     1.0000 0.17798  0.84485  0.75248  Biso   1.000  H
  C209     1.0000 0.14500  0.81111  0.78249  Biso   1.000  C
  C210     1.0000 0.11018  0.86964  0.70259  Biso   1.000  C
  C211     1.0000 0.11511  0.96520  0.59292  Biso   1.000  C
  C212     1.0000 0.12327  0.87009  0.42119  Biso   1.000  C
  C213     1.0000 0.13163  0.86920  0.30751  Biso   1.000  C
  H250     1.0000 0.13819  0.70262  0.27638  Biso   1.000  H
  O79      1.0000 0.07282  0.25629  0.74229  Biso   1.000  O
  H251     1.0000 0.05509  0.16844  0.66436  Biso   1.000  H
  H252     1.0000 0.07969  0.10450  0.70000  Biso   1.000  H
  H253     1.0000 0.15169  0.77683  0.82478  Biso   1.000  H
  C214     1.0000 0.11981  0.82014  0.76490  Biso   1.000  C
  H254     1.0000 0.09288  0.87620  0.69016  Biso   1.000  H
  O80      1.0000 0.11968  0.88868  0.53730  Biso   1.000  O
  H255     1.0000 0.09719  0.97671  0.59140  Biso   1.000  H
  H256     1.0000 0.12278  0.04375  0.58871  Biso   1.000  H
  C215     1.0000 0.12549  0.93092  0.36192  Biso   1.000  C
  C216     1.0000 0.11563  0.94075  0.47767  Biso   1.000  C
  H257     1.0000 0.13379  0.90887  0.26690  Biso   1.000  H
  C217     1.0000 0.05659  0.21440  0.78538  Biso   1.000  C
  O81      1.0000 0.10565  0.78206  0.81155  Biso   1.000  O
  H258     1.0000 0.12279  0.01399  0.35908  Biso   1.000  H
  O82      1.0000 0.10643  0.03861  0.46864  Biso   1.000  O
  C218     1.0000 0.06030  0.26833  0.84947  Biso   1.000  C
  H259     1.0000 0.03948  0.22892  0.76358  Biso   1.000  H
  H260     1.0000 0.05878  0.12779  0.79106  Biso   1.000  H
  C219     1.0000 0.08005  0.80783  0.79796  Biso   1.000  C
  O83      1.0000 0.05333  0.39470  0.84369  Biso   1.000  O
  H261     1.0000 0.07778  0.26125  0.86965  Biso   1.000  H
  H262     1.0000 0.05029  0.22751  0.87959  Biso   1.000  H
  H263     1.0000 0.07269  0.77152  0.75435  Biso   1.000  H
  H264     1.0000 0.07748  0.89453  0.79456  Biso   1.000  H
  C220     1.0000 0.06808  0.75894  0.85459  Biso   1.000  C
  C221     1.0000 0.06096  0.45351  0.90489  Biso   1.000  C
  O84      1.0000 0.06883  0.63434  0.85236  Biso   1.000  O
  H265     1.0000 0.07678  0.78737  0.89865  Biso   1.000  H
  H266     1.0000 0.05078  0.78613  0.84988  Biso   1.000  H
  C222     1.0000 0.05558  0.57988  0.89947  Biso   1.000  C
  H267     1.0000 0.07889  0.44208  0.91848  Biso   1.000  H
  H268     1.0000 0.05249  0.41879  0.94069  Biso   1.000  H
  H269     1.0000 0.03777  0.59157  0.88476  Biso   1.000  H
  H270     1.0000 0.06008  0.61761  0.94449  Biso   1.000  H
  C223     1.0000 0.78530  0.40710  0.04960  Biso   1.000  C
  C224     1.0000 0.79724  0.36229  0.99195  Biso   1.000  C
  O85      1.0000 0.79114  0.53002  0.05862  Biso   1.000  O
  H271     1.0000 0.76730  0.39630  0.03930  Biso   1.000  H
  H272     1.0000 0.79150  0.36273  0.09153  Biso   1.000  H
  H273     1.0000 0.79237  0.27914  0.98155  Biso   1.000  H
  H274     1.0000 0.79217  0.41082  0.95088  Biso   1.000  H
  O86      1.0000 0.82321  0.37017  0.01233  Biso   1.000  O
  C225     1.0000 0.78143  0.58245  0.11363  Biso   1.000  C
  C226     1.0000 0.83812  0.33803  0.96746  Biso   1.000  C
  H275     1.0000 0.78450  0.53055  0.15399  Biso   1.000  H
  H276     1.0000 0.76340  0.59343  0.10152  Biso   1.000  H
  C227     1.0000 0.79367  0.69890  0.12864  Biso   1.000  C
  C228     1.0000 0.86337  0.34750  0.99134  Biso   1.000  C
  C229     1.0000 0.83040  0.29809  0.90175  Biso   1.000  C
  O87      1.0000 0.78783  0.77674  0.07267  Biso   1.000  O
  H277     1.0000 0.78820  0.73415  0.16920  Biso   1.000  H
  H278     1.0000 0.81170  0.68765  0.13843  Biso   1.000  H
  C230     1.0000 0.88037  0.31580  0.95007  Biso   1.000  C
  C231     1.0000 0.87149  0.38665  0.06283  Biso   1.000  C
  C232     1.0000 0.84760  0.26567  0.86113  Biso   1.000  C
  H279     1.0000 0.81327  0.29304  0.88466  Biso   1.000  H
  C233     1.0000 0.80053  0.88558  0.08281  Biso   1.000  C
  H280     1.0000 0.89749  0.32279  0.96639  Biso   1.000  H
  C234     1.0000 0.87258  0.27365  0.88466  Biso   1.000  C
  O88      1.0000 0.87049  0.51691  0.06526  Biso   1.000  O
  H281     1.0000 0.86060  0.35228  0.09290  Biso   1.000  H
  H282     1.0000 0.88850  0.35902  0.07860  Biso   1.000  H
  H283     1.0000 0.84219  0.23769  0.81647  Biso   1.000  H
  H284     1.0000 0.81850  0.87088  0.08884  Biso   1.000  H
  H285     1.0000 0.79659  0.92384  0.12453  Biso   1.000  H
  C235     1.0000 0.79349  0.96599  0.02404  Biso   1.000  C
  O89      1.0000 0.88820  0.23680  0.84111  Biso   1.000  O
  C236     1.0000 0.86581  0.56208  0.12286  Biso   1.000  C
  O90      1.0000 0.80163  0.91861  0.96502  Biso   1.000  O
  H286     1.0000 0.77539  0.97574  0.01563  Biso   1.000  H
  H287     1.0000 0.80101  0.04490  0.03433  Biso   1.000  H
  C237     1.0000 0.91363  0.23627  0.86595  Biso   1.000  C
  O91      1.0000 0.86118  0.50505  0.17052  Biso   1.000  O
  C238     1.0000 0.86804  0.69412  0.12575  Biso   1.000  C
  C239     1.0000 0.79862  0.99814  0.90976  Biso   1.000  C
  C240     1.0000 0.92760  0.18208  0.81459  Biso   1.000  C
  H288     1.0000 0.91669  0.19040  0.90869  Biso   1.000  H
  H289     1.0000 0.91939  0.31837  0.87579  Biso   1.000  H
  N7       1.0000 0.87321  0.75292  0.07135  Biso   1.000  N
  C241     1.0000 0.86550  0.74832  0.18649  Biso   1.000  C
  C242     1.0000 0.80891  0.94518  0.85099  Biso   1.000  C
  H290     1.0000 0.80718  0.07341  0.92350  Biso   1.000  H
  H291     1.0000 0.78088  0.01567  0.89607  Biso   1.000  H
  O92      1.0000 0.92714  0.25629  0.75770  Biso   1.000  O
  H292     1.0000 0.94488  0.16844  0.83558  Biso   1.000  H
  H293     1.0000 0.92029  0.10450  0.79999  Biso   1.000  H
  C243     1.0000 0.87671  0.87009  0.07885  Biso   1.000  C
  C244     1.0000 0.86837  0.86920  0.19253  Biso   1.000  C
  H294     1.0000 0.86179  0.70262  0.22361  Biso   1.000  H
  O93      1.0000 0.83504  0.94447  0.86915  Biso   1.000  O
  H295     1.0000 0.80268  0.86353  0.84217  Biso   1.000  H
  H296     1.0000 0.80408  0.99309  0.80957  Biso   1.000  H
  C245     1.0000 0.94339  0.21440  0.71460  Biso   1.000  C
  C246     1.0000 0.87450  0.93092  0.13807  Biso   1.000  C
  C247     1.0000 0.88436  0.94075  0.02232  Biso   1.000  C
  H297     1.0000 0.86619  0.90887  0.23314  Biso   1.000  H
  C248     1.0000 0.84879  0.90135  0.82306  Biso   1.000  C
  C249     1.0000 0.93967  0.26833  0.65046  Biso   1.000  C
  H298     1.0000 0.96049  0.22892  0.73635  Biso   1.000  H
  H299     1.0000 0.94118  0.12779  0.70887  Biso   1.000  H
  H300     1.0000 0.87720  0.01399  0.14091  Biso   1.000  H
  O94      1.0000 0.88030  0.88868  0.96264  Biso   1.000  O
  O95      1.0000 0.89355  0.03861  0.03134  Biso   1.000  O
  C250     1.0000 0.87426  0.90932  0.84177  Biso   1.000  C
  C251     1.0000 0.83927  0.85131  0.76049  Biso   1.000  C
  O96      1.0000 0.94665  0.39470  0.65630  Biso   1.000  O
  H301     1.0000 0.92220  0.26125  0.63028  Biso   1.000  H
  H302     1.0000 0.94969  0.22751  0.62040  Biso   1.000  H
  C252     1.0000 0.88487  0.96520  0.90702  Biso   1.000  C
  C253     1.0000 0.88978  0.86964  0.79740  Biso   1.000  C
  H303     1.0000 0.82199  0.84485  0.74746  Biso   1.000  H
  C254     1.0000 0.85498  0.81111  0.71744  Biso   1.000  C
  C255     1.0000 0.93902  0.45351  0.59510  Biso   1.000  C
  H304     1.0000 0.90278  0.97671  0.90859  Biso   1.000  H
  H305     1.0000 0.87718  0.04375  0.91128  Biso   1.000  H
  C256     1.0000 0.88016  0.82014  0.73504  Biso   1.000  C
  H306     1.0000 0.90708  0.87620  0.80977  Biso   1.000  H
  H307     1.0000 0.84828  0.77683  0.67516  Biso   1.000  H
  C257     1.0000 0.94437  0.57988  0.60047  Biso   1.000  C
  H308     1.0000 0.92109  0.44208  0.58146  Biso   1.000  H
  H309     1.0000 0.94749  0.41879  0.55930  Biso   1.000  H
  O97      1.0000 0.89432  0.78206  0.68839  Biso   1.000  O
  O98      1.0000 0.93113  0.63434  0.64757  Biso   1.000  O
  H310     1.0000 0.96218  0.59157  0.61518  Biso   1.000  H
  H311     1.0000 0.93990  0.61761  0.55550  Biso   1.000  H
  C258     1.0000 0.91991  0.80783  0.70198  Biso   1.000  C
  C259     1.0000 0.93190  0.75894  0.64539  Biso   1.000  C
  H312     1.0000 0.92729  0.77152  0.74558  Biso   1.000  H
  H313     1.0000 0.92249  0.89453  0.70538  Biso   1.000  H
  H314     1.0000 0.92318  0.78737  0.60128  Biso   1.000  H
  H315     1.0000 0.94919  0.78613  0.65006  Biso   1.000  H
  C260     1.0000 0.21467  0.59290  0.95036  Biso   1.000  C
  O99      1.0000 0.20885  0.46998  0.94134  Biso   1.000  O
  C261     1.0000 0.20274  0.63771  0.00801  Biso   1.000  C
  H316     1.0000 0.23267  0.60370  0.96065  Biso   1.000  H
  H317     1.0000 0.20847  0.63735  0.90843  Biso   1.000  H
  C262     1.0000 0.21855  0.41764  0.88638  Biso   1.000  C
  H318     1.0000 0.20760  0.72095  0.01841  Biso   1.000  H
  H319     1.0000 0.20780  0.58918  0.04908  Biso   1.000  H
  O100     1.0000 0.17678  0.62983  0.98763  Biso   1.000  O
  C263     1.0000 0.20632  0.30110  0.87137  Biso   1.000  C
  H320     1.0000 0.21549  0.46954  0.84597  Biso   1.000  H
  H321     1.0000 0.23658  0.40657  0.89844  Biso   1.000  H
  C264     1.0000 0.16187  0.66197  0.03250  Biso   1.000  C
  O101     1.0000 0.21217  0.22334  0.92734  Biso   1.000  O
  H322     1.0000 0.21178  0.26594  0.83075  Biso   1.000  H
  H323     1.0000 0.18829  0.31243  0.86153  Biso   1.000  H
  C265     1.0000 0.13662  0.65250  0.00862  Biso   1.000  C
  C266     1.0000 0.16960  0.70191  0.09826  Biso   1.000  C
  C267     1.0000 0.19944  0.11442  0.91715  Biso   1.000  C
  C268     1.0000 0.12849  0.61344  0.93713  Biso   1.000  C
  C269     1.0000 0.11960  0.68420  0.04989  Biso   1.000  C
  C270     1.0000 0.15238  0.73433  0.13887  Biso   1.000  C
  H324     1.0000 0.18670  0.70705  0.11530  Biso   1.000  H
  C271     1.0000 0.20648  0.03401  0.97597  Biso   1.000  C
  H325     1.0000 0.18148  0.12912  0.91117  Biso   1.000  H
  H326     1.0000 0.20338  0.07616  0.87547  Biso   1.000  H
  O102     1.0000 0.12950  0.48309  0.93469  Biso   1.000  O
  H327     1.0000 0.13938  0.64772  0.90706  Biso   1.000  H
  H328     1.0000 0.11149  0.64098  0.92136  Biso   1.000  H
  H329     1.0000 0.10251  0.67721  0.03362  Biso   1.000  H
  C272     1.0000 0.12741  0.72644  0.11530  Biso   1.000  C
  H330     1.0000 0.15780  0.76231  0.18349  Biso   1.000  H
  O103     1.0000 0.19836  0.08139  0.03493  Biso   1.000  O
  H331     1.0000 0.19899  0.95510  0.96567  Biso   1.000  H
  H332     1.0000 0.22458  0.02426  0.98433  Biso   1.000  H
  C273     1.0000 0.13416  0.43792  0.87715  Biso   1.000  C
  O104     1.0000 0.11179  0.76320  0.15885  Biso   1.000  O
  C274     1.0000 0.20137  0.00186  0.09020  Biso   1.000  C
  C275     1.0000 0.13195  0.30588  0.87421  Biso   1.000  C
  O105     1.0000 0.13879  0.49504  0.82944  Biso   1.000  O
  C276     1.0000 0.08636  0.76373  0.13401  Biso   1.000  C
  C277     1.0000 0.19106  0.05482  0.14902  Biso   1.000  C
  H333     1.0000 0.19280  0.92659  0.07651  Biso   1.000  H
  H334     1.0000 0.21911  0.98433  0.10389  Biso   1.000  H
  N8       1.0000 0.12676  0.24708  0.92861  Biso   1.000  N
  C278     1.0000 0.13449  0.25168  0.81346  Biso   1.000  C
  C279     1.0000 0.07238  0.81792  0.18542  Biso   1.000  C
  H335     1.0000 0.08330  0.80960  0.09132  Biso   1.000  H
  H336     1.0000 0.08061  0.68163  0.12422  Biso   1.000  H
  O106     1.0000 0.16493  0.05553  0.13081  Biso   1.000  O
  H337     1.0000 0.19729  0.13647  0.15779  Biso   1.000  H
  H338     1.0000 0.19589  0.00691  0.19039  Biso   1.000  H
  C280     1.0000 0.12326  0.12991  0.92116  Biso   1.000  C
  C281     1.0000 0.13162  0.13080  0.80743  Biso   1.000  C
  H339     1.0000 0.13818  0.29738  0.77635  Biso   1.000  H
  O107     1.0000 0.07283  0.74371  0.24231  Biso   1.000  O
  H340     1.0000 0.05509  0.83165  0.16438  Biso   1.000  H
  H341     1.0000 0.07970  0.89550  0.19997  Biso   1.000  H
  C282     1.0000 0.15120  0.09874  0.17690  Biso   1.000  C
  C283     1.0000 0.11563  0.05933  0.97764  Biso   1.000  C
  C284     1.0000 0.12549  0.06908  0.86189  Biso   1.000  C
  H342     1.0000 0.13378  0.09113  0.76687  Biso   1.000  H
  C285     1.0000 0.05661  0.78560  0.28541  Biso   1.000  C
  C286     1.0000 0.16070  0.14869  0.23947  Biso   1.000  C
  C287     1.0000 0.12571  0.09068  0.15819  Biso   1.000  C
  O108     1.0000 0.11969  0.11132  0.03732  Biso   1.000  O
  O109     1.0000 0.10642  0.96139  0.96862  Biso   1.000  O
  H343     1.0000 0.12279  0.98601  0.85905  Biso   1.000  H
  C288     1.0000 0.06032  0.73176  0.34949  Biso   1.000  C
  H344     1.0000 0.03950  0.77108  0.26360  Biso   1.000  H
  H345     1.0000 0.05879  0.87221  0.29108  Biso   1.000  H
  H346     1.0000 0.17800  0.15524  0.25250  Biso   1.000  H
  C289     1.0000 0.14500  0.18889  0.28252  Biso   1.000  C
  C290     1.0000 0.11020  0.13045  0.20261  Biso   1.000  C
  C291     1.0000 0.11510  0.03480  0.09294  Biso   1.000  C
  O110     1.0000 0.05335  0.60530  0.34371  Biso   1.000  O
  H347     1.0000 0.07779  0.73884  0.36967  Biso   1.000  H
  H348     1.0000 0.05029  0.77249  0.37961  Biso   1.000  H
  H349     1.0000 0.15169  0.22317  0.32480  Biso   1.000  H
  C292     1.0000 0.11981  0.17986  0.26492  Biso   1.000  C
  H350     1.0000 0.09289  0.12380  0.19019  Biso   1.000  H
  H351     1.0000 0.09720  0.02329  0.09142  Biso   1.000  H
  H352     1.0000 0.12279  0.95634  0.08868  Biso   1.000  H
  C293     1.0000 0.06097  0.54649  0.40491  Biso   1.000  C
  O111     1.0000 0.10567  0.21803  0.31157  Biso   1.000  O
  C294     1.0000 0.05560  0.42012  0.39949  Biso   1.000  C
  H353     1.0000 0.07890  0.55792  0.41850  Biso   1.000  H
  H354     1.0000 0.05249  0.58121  0.44071  Biso   1.000  H
  C295     1.0000 0.08006  0.19217  0.29798  Biso   1.000  C
  O112     1.0000 0.06884  0.36575  0.35238  Biso   1.000  O
  H355     1.0000 0.03779  0.40843  0.38478  Biso   1.000  H
  H356     1.0000 0.06010  0.38239  0.44451  Biso   1.000  H
  H357     1.0000 0.07270  0.22848  0.25438  Biso   1.000  H
  H358     1.0000 0.07750  0.10547  0.29458  Biso   1.000  H
  C296     1.0000 0.06809  0.24114  0.35461  Biso   1.000  C
  H359     1.0000 0.07679  0.21263  0.39868  Biso   1.000  H
  H360     1.0000 0.05080  0.21387  0.34990  Biso   1.000  H
  Ne1      1.0000 0.36550  0.86946  0.41533  Biso   1.000  Ne
  He1      1.0000 0.37859  0.89539  0.38164  Biso   1.000  He
  He2      1.0000 0.33654  0.84971  0.42590  Biso   1.000  He
  Ar1      1.0000 0.35994  0.91113  0.36180  Biso   1.000  Ar
  Ne2      1.0000 0.13448  0.36946  0.08464  Biso   1.000  Ne
  He3      1.0000 0.15012  0.40838  0.13505  Biso   1.000  He
  He4      1.0000 0.12028  0.39394  0.11574  Biso   1.000  He
  He5      1.0000 0.16018  0.20291  0.02671  Biso   1.000  He
  Ar2      1.0000 0.13716  0.38480  0.10447  Biso   1.000  Ar
  Ne3      1.0000 0.13448  0.63056  0.58464  Biso   1.000  Ne
  He6      1.0000 0.17583  0.61753  0.62581  Biso   1.000  He
  He7      1.0000 0.12036  0.60587  0.61608  Biso   1.000  He
  He8      1.0000 0.15865  0.90973  0.50141  Biso   1.000  He
  Ar3      1.0000 0.13685  0.60703  0.61351  Biso   1.000  Ar
  Ne4      1.0000 0.36550  0.13055  0.91533  Biso   1.000  Ne
  He9      1.0000 0.39526  0.11475  0.90747  Biso   1.000  He
  He10     1.0000 0.34142  0.40586  0.99729  Biso   1.000  He
  He11     1.0000 0.00000  0.00000  0.00000  Biso   1.000  He
  Ar4      1.0000 0.36322  0.11752  0.89857  Biso   1.000  Ar
  Ne5      1.0000 0.63448  0.86946  0.08464  Biso   1.000  Ne
  He12     1.0000 0.65011  0.90839  0.13506  Biso   1.000  He
  He13     1.0000 0.62618  0.91481  0.14446  Biso   1.000  He
  He14     1.0000 0.66017  0.70289  0.02673  Biso   1.000  He
  Ar5      1.0000 0.63676  0.88247  0.10138  Biso   1.000  Ar
  Ne6      1.0000 0.63448  0.13055  0.58464  Biso   1.000  Ne
  He15     1.0000 0.67467  0.12149  0.61976  Biso   1.000  He
  He16     1.0000 0.60470  0.11475  0.59248  Biso   1.000  He
  He17     1.0000 0.65833  0.36145  0.51299  Biso   1.000  He
  Ar6      1.0000 0.63719  0.11507  0.60465  Biso   1.000  Ar
  Ne7      1.0000 0.86550  0.36946  0.41533  Biso   1.000  Ne
  He18     1.0000 0.87859  0.39537  0.38168  Biso   1.000  He
  He19     1.0000 0.83655  0.34966  0.42592  Biso   1.000  He
  Ar7      1.0000 0.86007  0.41107  0.36170  Biso   1.000  Ar
  Ne8      1.0000 0.86550  0.63056  0.91533  Biso   1.000  Ne
  He20     1.0000 0.89525  0.61473  0.90745  Biso   1.000  He
  He21     1.0000 0.84143  0.90595  0.99725  Biso   1.000  He
  He22     1.0000 0.00000  0.00000  0.00000  Biso   1.000  He
  Ar8      1.0000 0.86322  0.61752  0.89857  Biso   1.000  Ar
