data_image0
_cell_length_a       27.968
_cell_length_b       18.649
_cell_length_c       26.497
_cell_angle_alpha    90
_cell_angle_beta     116.64
_cell_angle_gamma    90

_symmetry_space_group_name_H-M    "P 1"
_symmetry_int_tables_number       1

loop_
  _symmetry_equiv_pos_as_xyz
  'x, y, z'

loop_
  _atom_site_label
  _atom_site_occupancy
  _atom_site_fract_x
  _atom_site_fract_y
  _atom_site_fract_z
  _atom_site_thermal_displace_type
  _atom_site_B_iso_or_equiv
  _atom_site_type_symbol
  C1       1.0000 0.48905  0.66046  0.61493  Biso   1.000  C
  C2       1.0000 0.44509  0.69623  0.57456  Biso   1.000  C
  C3       1.0000 0.49678  0.65526  0.67083  Biso   1.000  C
  H1       1.0000 0.51432  0.63923  0.60462  Biso   1.000  H
  C4       1.0000 0.43791  0.69918  0.51608  Biso   1.000  C
  C5       1.0000 0.40803  0.72781  0.59010  Biso   1.000  C
  C6       1.0000 0.54370  0.61918  0.71428  Biso   1.000  C
  C7       1.0000 0.45965  0.68669  0.68535  Biso   1.000  C
  N1       1.0000 0.39827  0.72878  0.47589  Biso   1.000  N
  H2       1.0000 0.46452  0.67773  0.50802  Biso   1.000  H
  C8       1.0000 0.41505  0.72315  0.64524  Biso   1.000  C
  H3       1.0000 0.37794  0.75253  0.56261  Biso   1.000  H
  N2       1.0000 0.58012  0.59129  0.70473  Biso   1.000  N
  H4       1.0000 0.54704  0.61660  0.75152  Biso   1.000  H
  H5       1.0000 0.46460  0.68341  0.72319  Biso   1.000  H
  C9       1.0000 0.39741  0.72578  0.42032  Biso   1.000  C
  C10      1.0000 0.37490  0.75500  0.66023  Biso   1.000  C
  C11      1.0000 0.62603  0.56121  0.75295  Biso   1.000  C
  C12      1.0000 0.34729  0.68947  0.37743  Biso   1.000  C
  H6       1.0000 0.42920  0.69913  0.42320  Biso   1.000  H
  H7       1.0000 0.39932  0.77511  0.40749  Biso   1.000  H
  N3       1.0000 0.37807  0.74899  0.70913  Biso   1.000  N
  H8       1.0000 0.34584  0.78079  0.63232  Biso   1.000  H
  C13      1.0000 0.63330  0.48314  0.74223  Biso   1.000  C
  H9       1.0000 0.62051  0.56529  0.78719  Biso   1.000  H
  H10      1.0000 0.65863  0.58850  0.75941  Biso   1.000  H
  N4       1.0000 0.34542  0.61338  0.38967  Biso   1.000  N
  H11      1.0000 0.31561  0.71382  0.37692  Biso   1.000  H
  H12      1.0000 0.34561  0.69451  0.33938  Biso   1.000  H
  C14      1.0000 0.33523  0.78154  0.71854  Biso   1.000  C
  N5       1.0000 0.58789  0.44104  0.73902  Biso   1.000  N
  H13      1.0000 0.63604  0.47863  0.70642  Biso   1.000  H
  H14      1.0000 0.66683  0.46469  0.77309  Biso   1.000  H
  C15      1.0000 0.30246  0.59076  0.38912  Biso   1.000  C
  C16      1.0000 0.31185  0.72717  0.74328  Biso   1.000  C
  H15      1.0000 0.30694  0.79961  0.68231  Biso   1.000  H
  H16      1.0000 0.34954  0.82273  0.74472  Biso   1.000  H
  C17      1.0000 0.56384  0.40222  0.69553  Biso   1.000  C
  C18      1.0000 0.29332  0.51552  0.39925  Biso   1.000  C
  H17      1.0000 0.27450  0.62432  0.38182  Biso   1.000  H
  N6       1.0000 0.28467  0.66996  0.70288  Biso   1.000  N
  H18      1.0000 0.34072  0.70642  0.77791  Biso   1.000  H
  H19      1.0000 0.28605  0.75109  0.75392  Biso   1.000  H
  C19      1.0000 0.51883  0.35525  0.68704  Biso   1.000  C
  H20      1.0000 0.57563  0.40361  0.66699  Biso   1.000  H
  C20      1.0000 0.33067  0.46131  0.40647  Biso   1.000  C
  C21      1.0000 0.24614  0.49804  0.40141  Biso   1.000  C
  C22      1.0000 0.29473  0.60657  0.72200  Biso   1.000  C
  C23      1.0000 0.49583  0.31321  0.63929  Biso   1.000  C
  C24      1.0000 0.49845  0.35176  0.72677  Biso   1.000  C
  C25      1.0000 0.32132  0.39107  0.41720  Biso   1.000  C
  H21      1.0000 0.36272  0.47268  0.40398  Biso   1.000  H
  C26      1.0000 0.23595  0.42758  0.41234  Biso   1.000  C
  H22      1.0000 0.22032  0.53429  0.39541  Biso   1.000  H
  C27      1.0000 0.26792  0.54346  0.68776  Biso   1.000  C
  H23      1.0000 0.32063  0.59950  0.76000  Biso   1.000  H
  C28      1.0000 0.45310  0.26720  0.62962  Biso   1.000  C
  H24      1.0000 0.50932  0.31551  0.61222  Biso   1.000  H
  C29      1.0000 0.45621  0.30688  0.71808  Biso   1.000  C
  H25      1.0000 0.51384  0.38050  0.75979  Biso   1.000  H
  C30      1.0000 0.36095  0.33482  0.42438  Biso   1.000  C
  C31      1.0000 0.27338  0.37487  0.42024  Biso   1.000  C
  C32      1.0000 0.18602  0.40780  0.41526  Biso   1.000  C
  C33      1.0000 0.22821  0.55011  0.63207  Biso   1.000  C
  C34      1.0000 0.28147  0.47627  0.71141  Biso   1.000  C
  C35      1.0000 0.42842  0.22269  0.57883  Biso   1.000  C
  C36      1.0000 0.43362  0.26414  0.66944  Biso   1.000  C
  C37      1.0000 0.43602  0.30232  0.76059  Biso   1.000  C
  N7       1.0000 0.35463  0.26945  0.43316  Biso   1.000  N
  H26      1.0000 0.39282  0.34822  0.42231  Biso   1.000  H
  H27      1.0000 0.26672  0.32710  0.42780  Biso   1.000  H
  N8       1.0000 0.15038  0.45327  0.41006  Biso   1.000  N
  H28      1.0000 0.18040  0.35889  0.42130  Biso   1.000  H
  C38      1.0000 0.20267  0.49016  0.60099  Biso   1.000  C
  H29      1.0000 0.21873  0.59633  0.61539  Biso   1.000  H
  C39      1.0000 0.25682  0.41466  0.68058  Biso   1.000  C
  H30      1.0000 0.30812  0.47161  0.74941  Biso   1.000  H
  N9       1.0000 0.44483  0.22307  0.54112  Biso   1.000  N
  H31      1.0000 0.39921  0.19261  0.57380  Biso   1.000  H
  H32      1.0000 0.40483  0.23288  0.66369  Biso   1.000  H
  N10      1.0000 0.39897  0.25969  0.75553  Biso   1.000  N
  H33      1.0000 0.45131  0.33240  0.79289  Biso   1.000  H
  C40      1.0000 0.39661  0.21931  0.43831  Biso   1.000  C
  C41      1.0000 0.10242  0.42565  0.41230  Biso   1.000  C
  C42      1.0000 0.16051  0.49912  0.54298  Biso   1.000  C
  C43      1.0000 0.21749  0.42233  0.62569  Biso   1.000  C
  C44      1.0000 0.27315  0.34361  0.70663  Biso   1.000  C
  C45      1.0000 0.41675  0.17658  0.49261  Biso   1.000  C
  C46      1.0000 0.38432  0.25701  0.80176  Biso   1.000  C
  H34      1.0000 0.42672  0.24618  0.43738  Biso   1.000  H
  H35      1.0000 0.38252  0.18602  0.40571  Biso   1.000  H
  H36      1.0000 0.10692  0.37380  0.42121  Biso   1.000  H
  H37      1.0000 0.07123  0.43160  0.37489  Biso   1.000  H
  C47      1.0000 0.09193  0.46453  0.45647  Biso   1.000  C
  N11      1.0000 0.13299  0.44764  0.51304  Biso   1.000  N
  H38      1.0000 0.15351  0.54598  0.52719  Biso   1.000  H
  H39      1.0000 0.20033  0.38088  0.60441  Biso   1.000  H
  N12      1.0000 0.30831  0.33632  0.75726  Biso   1.000  N
  H40      1.0000 0.25690  0.30211  0.68489  Biso   1.000  H
  H41      1.0000 0.38622  0.15352  0.49540  Biso   1.000  H
  H42      1.0000 0.44122  0.13840  0.49231  Biso   1.000  H
  H43      1.0000 0.40254  0.29621  0.82883  Biso   1.000  H
  H44      1.0000 0.39614  0.21079  0.82211  Biso   1.000  H
  C48      1.0000 0.32423  0.26457  0.77943  Biso   1.000  C
  H45      1.0000 0.09141  0.51692  0.45009  Biso   1.000  H
  H46      1.0000 0.05642  0.45043  0.45292  Biso   1.000  H
  H47      1.0000 0.30571  0.22891  0.74919  Biso   1.000  H
  H48      1.0000 0.31414  0.25562  0.81021  Biso   1.000  H
  C49      1.0000 0.66939  0.53874  0.59352  Biso   1.000  C
  C50      1.0000 0.70673  0.48448  0.60078  Biso   1.000  C
  C51      1.0000 0.67871  0.60893  0.58280  Biso   1.000  C
  H49      1.0000 0.63734  0.52732  0.59601  Biso   1.000  H
  C52      1.0000 0.69757  0.40924  0.61087  Biso   1.000  C
  C53      1.0000 0.75389  0.50196  0.59859  Biso   1.000  C
  C54      1.0000 0.63910  0.66518  0.57566  Biso   1.000  C
  C55      1.0000 0.72665  0.62513  0.57976  Biso   1.000  C
  N13      1.0000 0.65463  0.38662  0.61037  Biso   1.000  N
  H50      1.0000 0.72554  0.37573  0.61822  Biso   1.000  H
  C56      1.0000 0.76408  0.57247  0.58765  Biso   1.000  C
  H51      1.0000 0.77973  0.46571  0.60462  Biso   1.000  H
  N14      1.0000 0.64542  0.73055  0.56688  Biso   1.000  N
  H52      1.0000 0.60721  0.65183  0.57769  Biso   1.000  H
  H53      1.0000 0.73331  0.67290  0.57220  Biso   1.000  H
  C57      1.0000 0.65275  0.31053  0.62261  Biso   1.000  C
  C58      1.0000 0.81401  0.59220  0.58474  Biso   1.000  C
  C59      1.0000 0.60341  0.78069  0.56168  Biso   1.000  C
  C60      1.0000 0.60263  0.27422  0.57971  Biso   1.000  C
  H54      1.0000 0.68443  0.28618  0.62312  Biso   1.000  H
  H55      1.0000 0.65441  0.30549  0.66061  Biso   1.000  H
  N15      1.0000 0.84964  0.54673  0.58993  Biso   1.000  N
  H56      1.0000 0.81963  0.64111  0.57870  Biso   1.000  H
  C61      1.0000 0.58328  0.82342  0.50739  Biso   1.000  C
  H57      1.0000 0.57331  0.75382  0.56261  Biso   1.000  H
  H58      1.0000 0.61753  0.81398  0.59432  Biso   1.000  H
  N16      1.0000 0.60175  0.27122  0.52411  Biso   1.000  N
  H59      1.0000 0.57083  0.30093  0.57680  Biso   1.000  H
  H60      1.0000 0.60074  0.22489  0.59251  Biso   1.000  H
  C62      1.0000 0.89761  0.57435  0.58769  Biso   1.000  C
  N17      1.0000 0.55520  0.77699  0.45887  Biso   1.000  N
  H61      1.0000 0.61381  0.84653  0.50460  Biso   1.000  H
  H62      1.0000 0.55882  0.86160  0.50772  Biso   1.000  H
  C63      1.0000 0.56212  0.30087  0.48391  Biso   1.000  C
  C64      1.0000 0.90809  0.53547  0.54353  Biso   1.000  C
  H63      1.0000 0.89311  0.62620  0.57878  Biso   1.000  H
  H64      1.0000 0.92884  0.56840  0.62510  Biso   1.000  H
  C65      1.0000 0.57163  0.77731  0.42121  Biso   1.000  C
  C66      1.0000 0.55496  0.30377  0.42548  Biso   1.000  C
  H65      1.0000 0.53553  0.32232  0.49202  Biso   1.000  H
  N18      1.0000 0.86706  0.55242  0.48699  Biso   1.000  N
  H66      1.0000 0.90862  0.48308  0.54990  Biso   1.000  H
  H67      1.0000 0.94362  0.54963  0.54712  Biso   1.000  H
  C67      1.0000 0.54696  0.73285  0.37037  Biso   1.000  C
  H68      1.0000 0.60081  0.80739  0.42619  Biso   1.000  H
  C68      1.0000 0.51097  0.33954  0.38507  Biso   1.000  C
  C69      1.0000 0.59203  0.27219  0.40989  Biso   1.000  C
  C70      1.0000 0.83952  0.50088  0.45702  Biso   1.000  C
  C71      1.0000 0.50420  0.68679  0.36071  Biso   1.000  C
  C72      1.0000 0.56641  0.73586  0.33056  Biso   1.000  C
  C73      1.0000 0.50326  0.34474  0.32921  Biso   1.000  C
  H69      1.0000 0.48573  0.36082  0.39541  Biso   1.000  H
  C74      1.0000 0.58498  0.27685  0.35475  Biso   1.000  C
  H70      1.0000 0.62212  0.24752  0.43738  Biso   1.000  H
  C75      1.0000 0.79736  0.50984  0.39900  Biso   1.000  C
  H71      1.0000 0.84651  0.45402  0.47281  Biso   1.000  H
  C76      1.0000 0.48123  0.64475  0.31295  Biso   1.000  C
  H72      1.0000 0.49072  0.68449  0.38781  Biso   1.000  H
  C77      1.0000 0.54383  0.69317  0.28196  Biso   1.000  C
  H73      1.0000 0.59520  0.76712  0.33630  Biso   1.000  H
  C78      1.0000 0.45633  0.38082  0.28572  Biso   1.000  C
  C79      1.0000 0.54037  0.31337  0.31464  Biso   1.000  C
  C80      1.0000 0.62513  0.24505  0.33976  Biso   1.000  C
  C81      1.0000 0.77182  0.44989  0.36793  Biso   1.000  C
  C82      1.0000 0.78256  0.57773  0.37434  Biso   1.000  C
  C83      1.0000 0.43619  0.59783  0.30447  Biso   1.000  C
  C84      1.0000 0.50158  0.64824  0.27322  Biso   1.000  C
  C85      1.0000 0.56401  0.69768  0.23940  Biso   1.000  C
  N19      1.0000 0.41991  0.40871  0.29526  Biso   1.000  N
  H74      1.0000 0.45300  0.38340  0.24852  Biso   1.000  H
  H75      1.0000 0.53542  0.31659  0.27681  Biso   1.000  H
  N20      1.0000 0.62197  0.25101  0.29091  Biso   1.000  N
  H76      1.0000 0.65420  0.21921  0.36771  Biso   1.000  H
  C86      1.0000 0.73214  0.45654  0.31223  Biso   1.000  C
  H77      1.0000 0.78130  0.40372  0.38460  Biso   1.000  H
  C87      1.0000 0.74324  0.58534  0.31941  Biso   1.000  C
  H78      1.0000 0.79969  0.61912  0.39558  Biso   1.000  H
  N21      1.0000 0.41214  0.55896  0.26098  Biso   1.000  N
  H79      1.0000 0.42443  0.59639  0.33301  Biso   1.000  H
  H80      1.0000 0.48623  0.61950  0.24020  Biso   1.000  H
  N22      1.0000 0.60110  0.74031  0.24447  Biso   1.000  N
  H81      1.0000 0.54872  0.66760  0.20710  Biso   1.000  H
  C88      1.0000 0.37400  0.43879  0.24704  Biso   1.000  C
  C89      1.0000 0.66479  0.21851  0.28145  Biso   1.000  C
  C90      1.0000 0.70530  0.39343  0.27799  Biso   1.000  C
  C91      1.0000 0.71858  0.52373  0.28863  Biso   1.000  C
  C92      1.0000 0.72688  0.65639  0.29336  Biso   1.000  C
  C93      1.0000 0.36674  0.51686  0.25781  Biso   1.000  C
  C94      1.0000 0.61571  0.74299  0.19823  Biso   1.000  C
  H82      1.0000 0.37951  0.43471  0.21280  Biso   1.000  H
  H83      1.0000 0.34140  0.41150  0.24058  Biso   1.000  H
  C95      1.0000 0.68823  0.27283  0.25675  Biso   1.000  C
  H84      1.0000 0.69309  0.20039  0.31768  Biso   1.000  H
  H85      1.0000 0.65051  0.17733  0.25532  Biso   1.000  H
  N23      1.0000 0.71535  0.33004  0.29712  Biso   1.000  N
  H86      1.0000 0.67939  0.40050  0.23999  Biso   1.000  H
  H87      1.0000 0.69191  0.52839  0.25059  Biso   1.000  H
  N24      1.0000 0.69175  0.66368  0.24274  Biso   1.000  N
  H88      1.0000 0.74312  0.69789  0.31511  Biso   1.000  H
  H89      1.0000 0.36400  0.52142  0.29361  Biso   1.000  H
  H90      1.0000 0.33319  0.53531  0.22690  Biso   1.000  H
  H91      1.0000 0.59751  0.70379  0.17121  Biso   1.000  H
  H92      1.0000 0.60388  0.78921  0.17788  Biso   1.000  H
  C96      1.0000 0.67581  0.73543  0.22061  Biso   1.000  C
  H93      1.0000 0.65931  0.29358  0.22209  Biso   1.000  H
  H94      1.0000 0.71403  0.24891  0.24611  Biso   1.000  H
  H95      1.0000 0.69432  0.77109  0.25080  Biso   1.000  H
  H96      1.0000 0.68589  0.74438  0.18979  Biso   1.000  H
  C97      1.0000 0.61572  0.75698  0.69823  Biso   1.000  C
  N25      1.0000 0.60111  0.75967  0.74447  Biso   1.000  N
  H97      1.0000 0.59752  0.79618  0.67121  Biso   1.000  H
  H98      1.0000 0.60395  0.71082  0.67792  Biso   1.000  H
  C98      1.0000 0.67582  0.76455  0.72061  Biso   1.000  C
  C99      1.0000 0.56403  0.80235  0.73940  Biso   1.000  C
  N26      1.0000 0.69176  0.83635  0.74273  Biso   1.000  N
  H99      1.0000 0.69433  0.72889  0.75080  Biso   1.000  H
  H100     1.0000 0.68594  0.75559  0.68979  Biso   1.000  H
  C100     1.0000 0.54385  0.80685  0.78196  Biso   1.000  C
  H101     1.0000 0.54873  0.83243  0.70710  Biso   1.000  H
  C101     1.0000 0.72689  0.84364  0.79336  Biso   1.000  C
  C102     1.0000 0.56642  0.76417  0.83056  Biso   1.000  C
  C103     1.0000 0.50161  0.85179  0.77326  Biso   1.000  C
  C104     1.0000 0.74325  0.91463  0.81941  Biso   1.000  C
  H102     1.0000 0.74314  0.80213  0.81510  Biso   1.000  H
  C105     1.0000 0.54697  0.76717  0.87037  Biso   1.000  C
  H103     1.0000 0.59521  0.73291  0.83630  Biso   1.000  H
  H104     1.0000 0.48624  0.88053  0.74020  Biso   1.000  H
  C106     1.0000 0.48125  0.85527  0.81295  Biso   1.000  C
  C107     1.0000 0.78257  0.92230  0.87434  Biso   1.000  C
  C108     1.0000 0.71859  0.97630  0.78863  Biso   1.000  C
  C109     1.0000 0.50421  0.81318  0.86070  Biso   1.000  C
  C110     1.0000 0.57164  0.72272  0.92121  Biso   1.000  C
  C111     1.0000 0.43620  0.90219  0.80446  Biso   1.000  C
  H105     1.0000 0.79972  0.88091  0.89562  Biso   1.000  H
  C112     1.0000 0.79737  0.99019  0.89900  Biso   1.000  C
  H106     1.0000 0.69192  0.97163  0.75059  Biso   1.000  H
  C113     1.0000 0.73216  0.04349  0.81223  Biso   1.000  C
  H107     1.0000 0.49074  0.81549  0.88781  Biso   1.000  H
  N27      1.0000 0.55523  0.72304  0.95891  Biso   1.000  N
  H108     1.0000 0.60083  0.69258  0.92619  Biso   1.000  H
  N28      1.0000 0.41215  0.94102  0.76097  Biso   1.000  N
  H109     1.0000 0.42444  0.90359  0.83301  Biso   1.000  H
  C114     1.0000 0.83953  0.99914  0.95701  Biso   1.000  C
  C115     1.0000 0.77183  0.05014  0.86792  Biso   1.000  C
  C116     1.0000 0.70531  0.10655  0.77799  Biso   1.000  C
  C117     1.0000 0.58326  0.67660  0.00738  Biso   1.000  C
  C118     1.0000 0.36679  0.98316  0.75781  Biso   1.000  C
  N29      1.0000 0.86707  0.94761  0.98699  Biso   1.000  N
  H110     1.0000 0.84653  0.04601  0.97280  Biso   1.000  H
  H111     1.0000 0.78131  0.09631  0.88460  Biso   1.000  H
  N30      1.0000 0.71537  0.16993  0.79712  Biso   1.000  N
  H112     1.0000 0.67941  0.09952  0.73999  Biso   1.000  H
  H113     1.0000 0.61379  0.65349  0.00460  Biso   1.000  H
  H114     1.0000 0.55880  0.63843  0.00772  Biso   1.000  H
  C119     1.0000 0.60341  0.71934  0.06172  Biso   1.000  C
  H115     1.0000 0.36405  0.97860  0.79361  Biso   1.000  H
  H116     1.0000 0.33321  0.96472  0.72690  Biso   1.000  H
  C120     1.0000 0.37403  0.06118  0.74708  Biso   1.000  C
  C121     1.0000 0.90807  0.96450  0.04353  Biso   1.000  C
  C122     1.0000 0.68824  0.22720  0.75675  Biso   1.000  C
  N31      1.0000 0.64539  0.76948  0.06688  Biso   1.000  N
  H117     1.0000 0.57332  0.74621  0.06261  Biso   1.000  H
  H118     1.0000 0.61751  0.68599  0.09432  Biso   1.000  H
  N32      1.0000 0.41997  0.09126  0.79530  Biso   1.000  N
  H119     1.0000 0.37953  0.06531  0.71280  Biso   1.000  H
  H120     1.0000 0.34143  0.08853  0.74062  Biso   1.000  H
  C123     1.0000 0.89764  0.92568  0.08773  Biso   1.000  C
  H121     1.0000 0.94360  0.95040  0.04712  Biso   1.000  H
  H122     1.0000 0.90860  0.01689  0.04990  Biso   1.000  H
  H123     1.0000 0.65932  0.20639  0.72209  Biso   1.000  H
  H124     1.0000 0.71405  0.25111  0.74611  Biso   1.000  H
  C124     1.0000 0.66481  0.28152  0.78145  Biso   1.000  C
  C125     1.0000 0.63908  0.83484  0.07566  Biso   1.000  C
  C126     1.0000 0.45634  0.11920  0.78572  Biso   1.000  C
  N33      1.0000 0.84966  0.95330  0.08993  Biso   1.000  N
  H125     1.0000 0.89310  0.87383  0.07882  Biso   1.000  H
  H126     1.0000 0.92882  0.93163  0.12510  Biso   1.000  H
  N34      1.0000 0.62198  0.24902  0.79091  Biso   1.000  N
  H127     1.0000 0.69312  0.29964  0.81772  Biso   1.000  H
  H128     1.0000 0.65052  0.32270  0.75532  Biso   1.000  H
  C127     1.0000 0.67874  0.89104  0.08284  Biso   1.000  C
  H129     1.0000 0.60720  0.84820  0.07773  Biso   1.000  H
  C128     1.0000 0.50328  0.15524  0.82921  Biso   1.000  C
  H130     1.0000 0.45302  0.11663  0.74852  Biso   1.000  H
  C129     1.0000 0.81399  0.90782  0.08474  Biso   1.000  C
  C130     1.0000 0.62514  0.25497  0.83976  Biso   1.000  C
  C131     1.0000 0.72666  0.87490  0.07975  Biso   1.000  C
  C132     1.0000 0.66937  0.96128  0.09352  Biso   1.000  C
  C133     1.0000 0.54039  0.18666  0.81464  Biso   1.000  C
  C134     1.0000 0.51099  0.16049  0.88507  Biso   1.000  C
  C135     1.0000 0.76406  0.92756  0.08765  Biso   1.000  C
  H131     1.0000 0.81961  0.85892  0.07870  Biso   1.000  H
  C136     1.0000 0.58499  0.22312  0.85475  Biso   1.000  C
  H132     1.0000 0.65425  0.28082  0.86771  Biso   1.000  H
  H133     1.0000 0.73329  0.82712  0.07220  Biso   1.000  H
  H134     1.0000 0.63732  0.97271  0.09601  Biso   1.000  H
  C137     1.0000 0.70671  0.01555  0.10078  Biso   1.000  C
  H135     1.0000 0.53544  0.18339  0.77681  Biso   1.000  H
  C138     1.0000 0.55497  0.19626  0.92547  Biso   1.000  C
  H136     1.0000 0.48574  0.13920  0.89541  Biso   1.000  H
  C139     1.0000 0.75386  0.99807  0.09858  Biso   1.000  C
  C140     1.0000 0.59204  0.22779  0.90989  Biso   1.000  C
  C141     1.0000 0.69758  0.09078  0.11087  Biso   1.000  C
  C142     1.0000 0.56213  0.19915  0.98391  Biso   1.000  C
  H137     1.0000 0.77971  0.03432  0.10462  Biso   1.000  H
  H138     1.0000 0.62215  0.25251  0.93742  Biso   1.000  H
  N35      1.0000 0.65461  0.11341  0.11036  Biso   1.000  N
  H139     1.0000 0.72552  0.12430  0.11822  Biso   1.000  H
  H140     1.0000 0.53554  0.17770  0.99202  Biso   1.000  H
  N36      1.0000 0.60173  0.22875  0.02410  Biso   1.000  N
  C143     1.0000 0.65273  0.18950  0.12261  Biso   1.000  C
  C144     1.0000 0.60261  0.22580  0.07971  Biso   1.000  C
  H141     1.0000 0.68441  0.21379  0.12312  Biso   1.000  H
  H142     1.0000 0.65443  0.19449  0.16061  Biso   1.000  H
  H143     1.0000 0.57080  0.19910  0.07680  Biso   1.000  H
  H144     1.0000 0.60072  0.27514  0.09250  Biso   1.000  H
  C145     1.0000 0.38430  0.24302  0.30176  Biso   1.000  C
  C146     1.0000 0.32422  0.23545  0.27943  Biso   1.000  C
  N37      1.0000 0.39892  0.24033  0.25553  Biso   1.000  N
  H145     1.0000 0.40250  0.20382  0.32879  Biso   1.000  H
  H146     1.0000 0.39613  0.28918  0.32211  Biso   1.000  H
  N38      1.0000 0.30826  0.16371  0.25726  Biso   1.000  N
  H147     1.0000 0.30569  0.27111  0.24920  Biso   1.000  H
  H148     1.0000 0.31413  0.24441  0.31021  Biso   1.000  H
  C147     1.0000 0.43600  0.19770  0.26060  Biso   1.000  C
  C148     1.0000 0.27313  0.15642  0.20664  Biso   1.000  C
  C149     1.0000 0.45620  0.19315  0.21808  Biso   1.000  C
  H149     1.0000 0.45130  0.16762  0.29290  Biso   1.000  H
  C150     1.0000 0.25681  0.08537  0.18059  Biso   1.000  C
  H150     1.0000 0.25689  0.19792  0.18489  Biso   1.000  H
  C151     1.0000 0.43361  0.23583  0.16944  Biso   1.000  C
  C152     1.0000 0.49844  0.14827  0.22678  Biso   1.000  C
  C153     1.0000 0.21746  0.07770  0.12565  Biso   1.000  C
  C154     1.0000 0.28145  0.02370  0.21141  Biso   1.000  C
  C155     1.0000 0.45305  0.23283  0.12962  Biso   1.000  C
  H151     1.0000 0.40481  0.26709  0.16370  Biso   1.000  H
  H152     1.0000 0.51382  0.11952  0.25979  Biso   1.000  H
  C156     1.0000 0.51882  0.14478  0.18705  Biso   1.000  C
  H153     1.0000 0.20032  0.11909  0.10442  Biso   1.000  H
  C157     1.0000 0.20266  0.00987  0.10100  Biso   1.000  C
  H154     1.0000 0.30811  0.02842  0.24941  Biso   1.000  H
  C158     1.0000 0.26791  0.95651  0.18776  Biso   1.000  C
  C159     1.0000 0.49581  0.18682  0.13929  Biso   1.000  C
  C160     1.0000 0.42840  0.27733  0.07883  Biso   1.000  C
  C161     1.0000 0.56383  0.09781  0.19553  Biso   1.000  C
  C162     1.0000 0.16049  0.00086  0.04298  Biso   1.000  C
  C163     1.0000 0.22819  0.94986  0.13207  Biso   1.000  C
  C164     1.0000 0.29472  0.89345  0.22201  Biso   1.000  C
  H155     1.0000 0.50929  0.18451  0.11218  Biso   1.000  H
  N39      1.0000 0.44482  0.27696  0.04112  Biso   1.000  N
  H156     1.0000 0.39920  0.30742  0.07380  Biso   1.000  H
  N40      1.0000 0.58788  0.05898  0.23902  Biso   1.000  N
  H157     1.0000 0.57559  0.09641  0.16699  Biso   1.000  H
  N41      1.0000 0.13297  0.05239  0.01305  Biso   1.000  N
  H158     1.0000 0.15350  0.95399  0.02719  Biso   1.000  H
  H159     1.0000 0.21871  0.90369  0.11539  Biso   1.000  H
  N42      1.0000 0.28466  0.83007  0.20288  Biso   1.000  N
  H160     1.0000 0.32062  0.90048  0.26001  Biso   1.000  H
  C165     1.0000 0.41677  0.32340  0.99261  Biso   1.000  C
  C166     1.0000 0.63329  0.01684  0.24223  Biso   1.000  C
  C167     1.0000 0.09196  0.03550  0.95647  Biso   1.000  C
  C168     1.0000 0.31182  0.77286  0.24324  Biso   1.000  C
  H161     1.0000 0.38624  0.34651  0.99540  Biso   1.000  H
  H162     1.0000 0.44124  0.36163  0.99232  Biso   1.000  H
  C169     1.0000 0.39664  0.28066  0.93831  Biso   1.000  C
  H163     1.0000 0.63601  0.02140  0.20638  Biso   1.000  H
  H164     1.0000 0.66682  0.03528  0.27309  Biso   1.000  H
  C170     1.0000 0.62601  0.93882  0.25295  Biso   1.000  C
  H165     1.0000 0.09143  0.98311  0.95009  Biso   1.000  H
  C171     1.0000 0.10244  0.07432  0.91230  Biso   1.000  C
  H166     1.0000 0.05643  0.04960  0.95288  Biso   1.000  H
  H167     1.0000 0.34070  0.79361  0.27791  Biso   1.000  H
  H168     1.0000 0.28602  0.74889  0.25388  Biso   1.000  H
  C172     1.0000 0.33522  0.71848  0.21854  Biso   1.000  C
  N43      1.0000 0.35463  0.23058  0.93312  Biso   1.000  N
  H169     1.0000 0.42674  0.25379  0.93738  Biso   1.000  H
  H170     1.0000 0.38254  0.31401  0.90572  Biso   1.000  H
  N44      1.0000 0.58011  0.90874  0.20474  Biso   1.000  N
  H171     1.0000 0.62050  0.93469  0.28720  Biso   1.000  H
  H172     1.0000 0.65861  0.91152  0.25941  Biso   1.000  H
  N45      1.0000 0.15040  0.04670  0.91007  Biso   1.000  N
  H173     1.0000 0.10694  0.12623  0.92121  Biso   1.000  H
  H174     1.0000 0.07121  0.06842  0.87490  Biso   1.000  H
  N46      1.0000 0.37804  0.75103  0.20909  Biso   1.000  N
  H175     1.0000 0.30692  0.70041  0.18232  Biso   1.000  H
  H176     1.0000 0.34952  0.67730  0.24472  Biso   1.000  H
  C173     1.0000 0.36097  0.16521  0.92438  Biso   1.000  C
  C174     1.0000 0.54369  0.88085  0.21428  Biso   1.000  C
  C175     1.0000 0.18604  0.09218  0.91526  Biso   1.000  C
  C176     1.0000 0.37488  0.74503  0.16023  Biso   1.000  C
  C177     1.0000 0.32134  0.10896  0.91720  Biso   1.000  C
  H177     1.0000 0.39284  0.15180  0.92231  Biso   1.000  H
  C178     1.0000 0.49677  0.84476  0.17083  Biso   1.000  C
  H178     1.0000 0.54703  0.88343  0.25152  Biso   1.000  H
  C179     1.0000 0.23597  0.07244  0.91235  Biso   1.000  C
  H179     1.0000 0.18042  0.14108  0.92130  Biso   1.000  H
  C180     1.0000 0.41503  0.77688  0.14525  Biso   1.000  C
  H180     1.0000 0.34581  0.71918  0.13228  Biso   1.000  H
  C181     1.0000 0.27340  0.12510  0.92024  Biso   1.000  C
  C182     1.0000 0.33069  0.03872  0.90648  Biso   1.000  C
  C183     1.0000 0.45964  0.81334  0.18536  Biso   1.000  C
  C184     1.0000 0.48904  0.83956  0.11493  Biso   1.000  C
  C185     1.0000 0.24616  0.00193  0.90141  Biso   1.000  C
  C186     1.0000 0.40798  0.77221  0.09010  Biso   1.000  C
  H181     1.0000 0.26674  0.17288  0.92780  Biso   1.000  H
  C187     1.0000 0.29334  0.98445  0.89926  Biso   1.000  C
  H182     1.0000 0.36271  0.02729  0.90399  Biso   1.000  H
  H183     1.0000 0.46459  0.81661  0.22319  Biso   1.000  H
  C188     1.0000 0.44506  0.80374  0.07452  Biso   1.000  C
  H184     1.0000 0.51429  0.86080  0.10458  Biso   1.000  H
  H185     1.0000 0.22034  0.96568  0.89542  Biso   1.000  H
  H186     1.0000 0.37789  0.74749  0.06262  Biso   1.000  H
  C189     1.0000 0.30248  0.90927  0.88912  Biso   1.000  C
  C190     1.0000 0.43790  0.80085  0.01609  Biso   1.000  C
  N47      1.0000 0.34542  0.88664  0.88963  Biso   1.000  N
  H187     1.0000 0.27453  0.87570  0.88182  Biso   1.000  H
  N48      1.0000 0.39830  0.77125  0.97589  Biso   1.000  N
  H188     1.0000 0.46449  0.82230  0.00798  Biso   1.000  H
  C191     1.0000 0.34732  0.81050  0.87743  Biso   1.000  C
  C192     1.0000 0.39743  0.77425  0.92033  Biso   1.000  C
  H189     1.0000 0.31562  0.78621  0.87688  Biso   1.000  H
  H190     1.0000 0.34564  0.80551  0.83939  Biso   1.000  H
  H191     1.0000 0.42922  0.80090  0.92320  Biso   1.000  H
  H192     1.0000 0.39935  0.72492  0.90749  Biso   1.000  H
  C193     1.0000 0.40993  0.93072  0.55164  Biso   1.000  C
  N49      1.0000 0.37300  0.97147  0.50240  Biso   1.000  N
  C194     1.0000 0.40083  0.94788  0.60260  Biso   1.000  C
  H193     1.0000 0.44723  0.94273  0.56000  Biso   1.000  H
  H194     1.0000 0.40454  0.87881  0.54332  Biso   1.000  H
  C195     1.0000 0.34376  0.93506  0.45892  Biso   1.000  C
  N50      1.0000 0.34790  0.92370  0.59415  Biso   1.000  N
  H195     1.0000 0.42875  0.92412  0.63642  Biso   1.000  H
  H196     1.0000 0.40393  0.00032  0.60931  Biso   1.000  H
  C196     1.0000 0.30414  0.96750  0.40605  Biso   1.000  C
  H197     1.0000 0.34762  0.88439  0.46060  Biso   1.000  H
  C197     1.0000 0.31905  0.97045  0.60192  Biso   1.000  C
  C198     1.0000 0.27319  0.92294  0.36172  Biso   1.000  C
  C199     1.0000 0.29639  0.04183  0.39934  Biso   1.000  C
  C200     1.0000 0.26583  0.95447  0.59833  Biso   1.000  C
  H198     1.0000 0.33221  0.01812  0.61049  Biso   1.000  H
  C201     1.0000 0.23422  0.95126  0.31105  Biso   1.000  C
  H199     1.0000 0.27841  0.87249  0.36569  Biso   1.000  H
  C202     1.0000 0.25817  0.07100  0.34969  Biso   1.000  C
  H200     1.0000 0.31792  0.07271  0.42949  Biso   1.000  H
  C203     1.0000 0.24380  0.88562  0.58655  Biso   1.000  C
  C204     1.0000 0.23812  0.00928  0.60902  Biso   1.000  C
  C205     1.0000 0.20118  0.90589  0.26258  Biso   1.000  C
  C206     1.0000 0.22711  0.02451  0.30569  Biso   1.000  C
  C207     1.0000 0.24954  0.14869  0.34251  Biso   1.000  C
  C208     1.0000 0.19460  0.87131  0.58605  Biso   1.000  C
  H201     1.0000 0.26253  0.84809  0.57870  Biso   1.000  H
  C209     1.0000 0.18786  0.99635  0.60745  Biso   1.000  C
  H202     1.0000 0.25313  0.05604  0.61750  Biso   1.000  H
  N51      1.0000 0.20597  0.83881  0.26131  Biso   1.000  N
  H203     1.0000 0.17450  0.92863  0.22999  Biso   1.000  H
  H204     1.0000 0.20050  0.04381  0.27141  Biso   1.000  H
  N52      1.0000 0.21203  0.17534  0.29830  Biso   1.000  N
  H205     1.0000 0.27263  0.17990  0.37160  Biso   1.000  H
  C210     1.0000 0.17280  0.79833  0.57410  Biso   1.000  C
  C211     1.0000 0.16714  0.92782  0.59690  Biso   1.000  C
  C212     1.0000 0.15732  0.05464  0.61678  Biso   1.000  C
  C213     1.0000 0.17147  0.80455  0.20778  Biso   1.000  C
  C214     1.0000 0.20804  0.25326  0.29454  Biso   1.000  C
  N53      1.0000 0.12672  0.78224  0.56941  Biso   1.000  N
  H206     1.0000 0.19403  0.76143  0.56962  Biso   1.000  H
  H207     1.0000 0.13371  0.91860  0.59690  Biso   1.000  H
  N54      1.0000 0.17174  0.11968  0.62286  Biso   1.000  N
  H208     1.0000 0.12493  0.04279  0.61830  Biso   1.000  H
  C215     1.0000 0.13763  0.74664  0.21542  Biso   1.000  C
  H209     1.0000 0.19370  0.78342  0.19118  Biso   1.000  H
  H210     1.0000 0.14790  0.84112  0.18109  Biso   1.000  H
  H211     1.0000 0.22030  0.27052  0.26701  Biso   1.000  H
  H212     1.0000 0.23151  0.27444  0.33178  Biso   1.000  H
  C216     1.0000 0.15095  0.27733  0.27630  Biso   1.000  C
  C217     1.0000 0.11031  0.70749  0.55797  Biso   1.000  C
  C218     1.0000 0.13687  0.17068  0.63211  Biso   1.000  C
  N55      1.0000 0.09852  0.77854  0.23125  Biso   1.000  N
  H213     1.0000 0.11881  0.71940  0.17978  Biso   1.000  H
  H214     1.0000 0.16079  0.71291  0.24519  Biso   1.000  H
  N56      1.0000 0.13419  0.26055  0.31983  Biso   1.000  N
  H215     1.0000 0.14822  0.32972  0.26929  Biso   1.000  H
  H216     1.0000 0.12700  0.25294  0.24071  Biso   1.000  H
  C219     1.0000 0.05832  0.69918  0.50519  Biso   1.000  C
  H217     1.0000 0.10621  0.68738  0.59040  Biso   1.000  H
  H218     1.0000 0.13853  0.67982  0.55379  Biso   1.000  H
  C220     1.0000 0.12033  0.23165  0.59031  Biso   1.000  C
  H219     1.0000 0.15573  0.19031  0.67079  Biso   1.000  H
  H220     1.0000 0.10451  0.14542  0.62890  Biso   1.000  H
  C221     1.0000 0.09941  0.75881  0.27736  Biso   1.000  C
  C222     1.0000 0.08977  0.22832  0.30358  Biso   1.000  C
  N57      1.0000 0.06478  0.71897  0.45516  Biso   1.000  N
  H221     1.0000 0.04600  0.64883  0.50169  Biso   1.000  H
  H222     1.0000 0.03072  0.73012  0.50781  Biso   1.000  H
  N58      1.0000 0.08578  0.20725  0.53264  Biso   1.000  N
  H223     1.0000 0.10111  0.26811  0.60129  Biso   1.000  H
  H224     1.0000 0.15273  0.25449  0.59132  Biso   1.000  H
  C223     1.0000 0.06261  0.78792  0.29813  Biso   1.000  C
  H225     1.0000 0.12479  0.72379  0.29948  Biso   1.000  H
  C224     1.0000 0.06719  0.20789  0.34217  Biso   1.000  C
  H226     1.0000 0.07021  0.21679  0.26469  Biso   1.000  H
  C225     1.0000 0.03146  0.76412  0.42235  Biso   1.000  C
  C226     1.0000 0.10091  0.22285  0.49544  Biso   1.000  C
  C227     1.0000 0.06497  0.76197  0.34846  Biso   1.000  C
  C228     1.0000 0.02467  0.84031  0.26790  Biso   1.000  C
  C229     1.0000 0.01848  0.17282  0.32059  Biso   1.000  C
  C230     1.0000 0.09391  0.22242  0.39985  Biso   1.000  C
  C231     1.0000 0.03030  0.78889  0.36919  Biso   1.000  C
  H227     1.0000 0.00573  0.78321  0.43282  Biso   1.000  H
  C232     1.0000 0.07129  0.20446  0.43540  Biso   1.000  C
  H228     1.0000 0.13362  0.24822  0.50730  Biso   1.000  H
  H229     1.0000 0.09010  0.72583  0.36890  Biso   1.000  H
  H230     1.0000 0.02301  0.85822  0.23362  Biso   1.000  H
  C233     1.0000 0.98953  0.86643  0.28728  Biso   1.000  C
  C234     1.0000 0.99558  0.15207  0.35598  Biso   1.000  C
  H231     1.0000 0.00023  0.16264  0.28141  Biso   1.000  H
  H232     1.0000 0.12802  0.24484  0.41509  Biso   1.000  H
  C235     1.0000 0.99282  0.84021  0.33803  Biso   1.000  C
  C236     1.0000 0.02170  0.16918  0.41277  Biso   1.000  C
  C237     1.0000 0.94840  0.91924  0.25426  Biso   1.000  C
  C238     1.0000 0.94515  0.11175  0.33280  Biso   1.000  C
  H233     1.0000 0.96883  0.85790  0.35150  Biso   1.000  H
  H234     1.0000 0.00591  0.15690  0.43671  Biso   1.000  H
  N59      1.0000 0.91225  0.93876  0.26773  Biso   1.000  N
  H235     1.0000 0.94889  0.93941  0.22158  Biso   1.000  H
  N60      1.0000 0.92060  0.09459  0.28099  Biso   1.000  N
  H236     1.0000 0.93043  0.09802  0.35741  Biso   1.000  H
  C239     1.0000 0.87212  0.98922  0.22999  Biso   1.000  C
  C240     1.0000 0.87072  0.05545  0.26237  Biso   1.000  C
  H237     1.0000 0.83652  0.96600  0.21310  Biso   1.000  H
  H238     1.0000 0.88080  0.00311  0.19899  Biso   1.000  H
  H239     1.0000 0.84050  0.08649  0.23788  Biso   1.000  H
  H240     1.0000 0.86542  0.04129  0.29551  Biso   1.000  H
  C241     1.0000 0.59010  0.06928  0.44836  Biso   1.000  C
  N61      1.0000 0.62703  0.02858  0.49759  Biso   1.000  N
  C242     1.0000 0.59920  0.05212  0.39740  Biso   1.000  C
  H241     1.0000 0.55283  0.05732  0.44000  Biso   1.000  H
  H242     1.0000 0.59551  0.12119  0.45672  Biso   1.000  H
  C243     1.0000 0.65628  0.06494  0.54112  Biso   1.000  C
  N62      1.0000 0.65213  0.07630  0.40584  Biso   1.000  N
  H243     1.0000 0.57133  0.07588  0.36362  Biso   1.000  H
  H244     1.0000 0.59610  0.99968  0.39068  Biso   1.000  H
  C244     1.0000 0.69589  0.03250  0.59394  Biso   1.000  C
  H245     1.0000 0.65240  0.11561  0.53939  Biso   1.000  H
  C245     1.0000 0.68101  0.02955  0.39807  Biso   1.000  C
  C246     1.0000 0.72684  0.07711  0.63828  Biso   1.000  C
  C247     1.0000 0.70364  0.95823  0.60066  Biso   1.000  C
  C248     1.0000 0.73420  0.04553  0.40166  Biso   1.000  C
  H246     1.0000 0.66782  0.98188  0.38950  Biso   1.000  H
  C249     1.0000 0.76583  0.04880  0.68898  Biso   1.000  C
  H247     1.0000 0.72161  0.12751  0.63431  Biso   1.000  H
  C250     1.0000 0.74189  0.92900  0.65031  Biso   1.000  C
  H248     1.0000 0.68214  0.92729  0.57051  Biso   1.000  H
  C251     1.0000 0.75628  0.11438  0.41348  Biso   1.000  C
  C252     1.0000 0.76191  0.99078  0.39098  Biso   1.000  C
  C253     1.0000 0.79886  0.09411  0.73746  Biso   1.000  C
  C254     1.0000 0.77292  0.97549  0.69430  Biso   1.000  C
  C255     1.0000 0.75048  0.85131  0.65749  Biso   1.000  C
  H249     1.0000 0.73750  0.15191  0.42130  Biso   1.000  H
  C256     1.0000 0.80546  0.12875  0.41395  Biso   1.000  C
  C257     1.0000 0.81217  0.00365  0.39254  Biso   1.000  C
  H250     1.0000 0.74690  0.94402  0.38249  Biso   1.000  H
  N63      1.0000 0.79409  0.16119  0.73868  Biso   1.000  N
  H251     1.0000 0.82553  0.07142  0.77001  Biso   1.000  H
  H252     1.0000 0.79953  0.95619  0.72859  Biso   1.000  H
  N64      1.0000 0.78800  0.82466  0.70169  Biso   1.000  N
  H253     1.0000 0.72743  0.82010  0.62840  Biso   1.000  H
  C258     1.0000 0.83292  0.07218  0.40310  Biso   1.000  C
  C259     1.0000 0.82723  0.20167  0.42590  Biso   1.000  C
  C260     1.0000 0.84276  0.94536  0.38325  Biso   1.000  C
  C261     1.0000 0.82860  0.19545  0.79222  Biso   1.000  C
  C262     1.0000 0.79202  0.74674  0.70545  Biso   1.000  C
  H254     1.0000 0.86632  0.08140  0.40310  Biso   1.000  H
  N65      1.0000 0.87331  0.21776  0.43058  Biso   1.000  N
  H255     1.0000 0.80602  0.23862  0.43042  Biso   1.000  H
  N66      1.0000 0.82833  0.88032  0.37713  Biso   1.000  N
  H256     1.0000 0.87510  0.95721  0.38169  Biso   1.000  H
  H257     1.0000 0.80633  0.21658  0.80881  Biso   1.000  H
  H258     1.0000 0.85213  0.15888  0.81890  Biso   1.000  H
  C263     1.0000 0.86241  0.25342  0.78462  Biso   1.000  C
  H259     1.0000 0.77974  0.72948  0.73302  Biso   1.000  H
  H260     1.0000 0.76852  0.72562  0.66821  Biso   1.000  H
  C264     1.0000 0.84908  0.72267  0.72369  Biso   1.000  C
  C265     1.0000 0.88974  0.29256  0.44207  Biso   1.000  C
  C266     1.0000 0.86316  0.82932  0.36788  Biso   1.000  C
  N67      1.0000 0.90154  0.22146  0.76874  Biso   1.000  N
  H261     1.0000 0.88125  0.28060  0.82021  Biso   1.000  H
  H262     1.0000 0.83924  0.28709  0.75481  Biso   1.000  H
  N68      1.0000 0.86584  0.73945  0.68016  Biso   1.000  N
  H263     1.0000 0.85184  0.67028  0.73070  Biso   1.000  H
  H264     1.0000 0.87303  0.74712  0.75929  Biso   1.000  H
  H265     1.0000 0.89382  0.31262  0.40960  Biso   1.000  H
  H266     1.0000 0.86153  0.32018  0.44621  Biso   1.000  H
  C267     1.0000 0.94171  0.30082  0.49480  Biso   1.000  C
  H267     1.0000 0.84433  0.80969  0.32921  Biso   1.000  H
  H268     1.0000 0.89552  0.85458  0.37109  Biso   1.000  H
  C268     1.0000 0.87970  0.76835  0.40968  Biso   1.000  C
  C269     1.0000 0.90065  0.24119  0.72264  Biso   1.000  C
  C270     1.0000 0.91025  0.77168  0.69642  Biso   1.000  C
  N69      1.0000 0.93525  0.28109  0.54484  Biso   1.000  N
  H269     1.0000 0.95403  0.35123  0.49831  Biso   1.000  H
  H270     1.0000 0.96931  0.26988  0.49219  Biso   1.000  H
  N70      1.0000 0.91425  0.79275  0.46736  Biso   1.000  N
  H271     1.0000 0.89892  0.73189  0.39871  Biso   1.000  H
  H272     1.0000 0.84732  0.74551  0.40871  Biso   1.000  H
  C271     1.0000 0.93744  0.21208  0.70191  Biso   1.000  C
  H273     1.0000 0.87524  0.27621  0.70051  Biso   1.000  H
  C272     1.0000 0.93283  0.79211  0.65782  Biso   1.000  C
  H274     1.0000 0.92981  0.78321  0.73530  Biso   1.000  H
  C273     1.0000 0.96857  0.23588  0.57764  Biso   1.000  C
  C274     1.0000 0.89915  0.77715  0.50456  Biso   1.000  C
  C275     1.0000 0.93506  0.23803  0.65153  Biso   1.000  C
  C276     1.0000 0.97536  0.15969  0.73209  Biso   1.000  C
  C277     1.0000 0.98154  0.82718  0.67940  Biso   1.000  C
  C278     1.0000 0.90612  0.77758  0.60015  Biso   1.000  C
  C279     1.0000 0.96973  0.21111  0.63080  Biso   1.000  C
  H275     1.0000 0.99431  0.21679  0.56722  Biso   1.000  H
  C280     1.0000 0.92874  0.79554  0.56460  Biso   1.000  C
  H276     1.0000 0.86640  0.75178  0.49269  Biso   1.000  H
  H277     1.0000 0.90993  0.27422  0.63110  Biso   1.000  H
  H278     1.0000 0.97703  0.14178  0.76642  Biso   1.000  H
  C281     1.0000 0.01050  0.13357  0.71271  Biso   1.000  C
  H279     1.0000 0.99985  0.83742  0.71863  Biso   1.000  H
  C282     1.0000 0.00445  0.84793  0.64402  Biso   1.000  C
  H280     1.0000 0.87204  0.75521  0.58491  Biso   1.000  H
  C283     1.0000 0.00723  0.15985  0.66200  Biso   1.000  C
  C284     1.0000 0.97834  0.83082  0.58727  Biso   1.000  C
  C285     1.0000 0.05164  0.08081  0.74577  Biso   1.000  C
  C286     1.0000 0.05488  0.88825  0.66720  Biso   1.000  C
  H281     1.0000 0.03124  0.14210  0.64849  Biso   1.000  H
  H282     1.0000 0.99411  0.84310  0.56329  Biso   1.000  H
  N71      1.0000 0.08777  0.06124  0.73226  Biso   1.000  N
  H283     1.0000 0.05114  0.06059  0.77841  Biso   1.000  H
  N72      1.0000 0.07943  0.90541  0.71901  Biso   1.000  N
  H284     1.0000 0.06965  0.90198  0.64262  Biso   1.000  H
  C287     1.0000 0.12791  0.01078  0.77001  Biso   1.000  C
  C288     1.0000 0.12931  0.94455  0.73763  Biso   1.000  C
  H285     1.0000 0.11923  0.99689  0.80100  Biso   1.000  H
  H286     1.0000 0.16354  0.03400  0.78690  Biso   1.000  H
  H287     1.0000 0.15952  0.91351  0.76211  Biso   1.000  H
  H288     1.0000 0.13463  0.95871  0.70452  Biso   1.000  H
  C289     1.0000 0.20123  0.59413  0.76258  Biso   1.000  C
  C290     1.0000 0.23423  0.54877  0.81105  Biso   1.000  C
  N73      1.0000 0.20599  0.66122  0.76131  Biso   1.000  N
  H289     1.0000 0.17453  0.57140  0.73003  Biso   1.000  H
  C291     1.0000 0.22712  0.47552  0.80569  Biso   1.000  C
  C292     1.0000 0.27320  0.57708  0.86172  Biso   1.000  C
  C293     1.0000 0.17148  0.69548  0.70777  Biso   1.000  C
  C294     1.0000 0.25819  0.42903  0.84968  Biso   1.000  C
  H290     1.0000 0.20051  0.45622  0.77140  Biso   1.000  H
  C295     1.0000 0.30417  0.53252  0.90609  Biso   1.000  C
  H291     1.0000 0.27843  0.62749  0.86569  Biso   1.000  H
  H292     1.0000 0.19373  0.71661  0.69122  Biso   1.000  H
  H293     1.0000 0.14792  0.65891  0.68109  Biso   1.000  H
  C296     1.0000 0.13765  0.75339  0.71542  Biso   1.000  C
  C297     1.0000 0.24959  0.35128  0.84251  Biso   1.000  C
  C298     1.0000 0.29640  0.45820  0.89934  Biso   1.000  C
  C299     1.0000 0.34377  0.56496  0.95891  Biso   1.000  C
  N74      1.0000 0.09854  0.72149  0.73125  Biso   1.000  N
  H294     1.0000 0.11884  0.78063  0.67982  Biso   1.000  H
  H295     1.0000 0.16082  0.78712  0.74523  Biso   1.000  H
  N75      1.0000 0.21206  0.32463  0.79834  Biso   1.000  N
  H296     1.0000 0.27264  0.32012  0.87160  Biso   1.000  H
  H297     1.0000 0.31795  0.42732  0.92953  Biso   1.000  H
  H298     1.0000 0.34764  0.61558  0.96060  Biso   1.000  H
  N76      1.0000 0.37299  0.52855  0.00244  Biso   1.000  N
  C300     1.0000 0.09942  0.74122  0.77736  Biso   1.000  C
  C301     1.0000 0.20805  0.24677  0.79454  Biso   1.000  C
  C302     1.0000 0.40991  0.56931  0.05163  Biso   1.000  C
  C303     1.0000 0.06266  0.71210  0.79813  Biso   1.000  C
  H299     1.0000 0.12482  0.77623  0.79952  Biso   1.000  H
  H300     1.0000 0.22035  0.22950  0.76701  Biso   1.000  H
  H301     1.0000 0.23154  0.22559  0.83182  Biso   1.000  H
  C304     1.0000 0.15098  0.22269  0.77634  Biso   1.000  C
  C305     1.0000 0.40081  0.55215  0.10260  Biso   1.000  C
  H302     1.0000 0.44721  0.55730  0.05999  Biso   1.000  H
  H303     1.0000 0.40451  0.62121  0.04332  Biso   1.000  H
  C306     1.0000 0.06498  0.73806  0.84846  Biso   1.000  C
  C307     1.0000 0.02468  0.65971  0.76790  Biso   1.000  C
  N77      1.0000 0.13420  0.23942  0.81983  Biso   1.000  N
  H304     1.0000 0.14823  0.17030  0.76929  Biso   1.000  H
  H305     1.0000 0.12705  0.24709  0.74071  Biso   1.000  H
  N78      1.0000 0.34789  0.57633  0.09419  Biso   1.000  N
  H306     1.0000 0.42872  0.57590  0.13642  Biso   1.000  H
  H307     1.0000 0.40391  0.49971  0.10931  Biso   1.000  H
  C308     1.0000 0.03031  0.71114  0.86919  Biso   1.000  C
  H308     1.0000 0.09014  0.77420  0.86889  Biso   1.000  H
  C309     1.0000 0.98954  0.63355  0.78728  Biso   1.000  C
  H309     1.0000 0.02302  0.64180  0.73361  Biso   1.000  H
  C310     1.0000 0.08979  0.27170  0.80358  Biso   1.000  C
  C311     1.0000 0.31903  0.52952  0.10192  Biso   1.000  C
  C312     1.0000 0.99283  0.65982  0.83803  Biso   1.000  C
  C313     1.0000 0.03147  0.73586  0.92235  Biso   1.000  C
  C314     1.0000 0.94841  0.58078  0.75426  Biso   1.000  C
  C315     1.0000 0.06721  0.29213  0.84217  Biso   1.000  C
  H310     1.0000 0.07023  0.28318  0.76469  Biso   1.000  H
  C316     1.0000 0.26581  0.54550  0.09833  Biso   1.000  C
  H311     1.0000 0.33218  0.48190  0.11049  Biso   1.000  H
  H312     1.0000 0.96884  0.64213  0.85150  Biso   1.000  H
  N79      1.0000 0.06479  0.78106  0.95515  Biso   1.000  N
  H313     1.0000 0.00574  0.71682  0.93282  Biso   1.000  H
  N80      1.0000 0.91230  0.56121  0.76773  Biso   1.000  N
  H314     1.0000 0.94892  0.56062  0.72162  Biso   1.000  H
  C317     1.0000 0.01851  0.32720  0.82063  Biso   1.000  C
  C318     1.0000 0.09398  0.27760  0.89989  Biso   1.000  C
  C319     1.0000 0.24378  0.61440  0.08655  Biso   1.000  C
  C320     1.0000 0.23809  0.49075  0.10901  Biso   1.000  C
  C321     1.0000 0.05830  0.80085  0.00519  Biso   1.000  C
  C322     1.0000 0.87213  0.51080  0.72998  Biso   1.000  C
  H315     1.0000 0.00024  0.33739  0.78141  Biso   1.000  H
  C323     1.0000 0.99559  0.34795  0.85597  Biso   1.000  C
  C324     1.0000 0.07130  0.29557  0.93539  Biso   1.000  C
  H316     1.0000 0.12804  0.25519  0.91509  Biso   1.000  H
  H317     1.0000 0.26251  0.65188  0.07870  Biso   1.000  H
  C325     1.0000 0.19458  0.62872  0.08604  Biso   1.000  C
  C326     1.0000 0.18785  0.50362  0.10749  Biso   1.000  C
  H318     1.0000 0.25310  0.44399  0.11750  Biso   1.000  H
  C327     1.0000 0.11029  0.79254  0.05797  Biso   1.000  C
  H319     1.0000 0.04599  0.85120  0.00173  Biso   1.000  H
  H320     1.0000 0.03070  0.76991  0.00781  Biso   1.000  H
  C328     1.0000 0.87073  0.44458  0.76237  Biso   1.000  C
  H321     1.0000 0.83653  0.53402  0.71309  Biso   1.000  H
  H322     1.0000 0.88081  0.49692  0.69899  Biso   1.000  H
  C329     1.0000 0.02172  0.33085  0.91276  Biso   1.000  C
  C330     1.0000 0.94516  0.38828  0.83279  Biso   1.000  C
  C331     1.0000 0.10092  0.27717  0.99544  Biso   1.000  C
  C332     1.0000 0.16712  0.57220  0.09690  Biso   1.000  C
  C333     1.0000 0.17277  0.70165  0.07410  Biso   1.000  C
  C334     1.0000 0.15730  0.44539  0.11678  Biso   1.000  C
  N81      1.0000 0.12670  0.71779  0.06941  Biso   1.000  N
  H323     1.0000 0.10618  0.81259  0.09039  Biso   1.000  H
  H324     1.0000 0.13851  0.82020  0.05379  Biso   1.000  H
  N82      1.0000 0.92062  0.40538  0.78099  Biso   1.000  N
  H325     1.0000 0.84054  0.41348  0.73792  Biso   1.000  H
  H326     1.0000 0.86543  0.45868  0.79551  Biso   1.000  H
  H327     1.0000 0.00593  0.34313  0.93670  Biso   1.000  H
  H328     1.0000 0.93045  0.40201  0.85741  Biso   1.000  H
  N83      1.0000 0.08576  0.29278  0.03263  Biso   1.000  N
  H329     1.0000 0.13360  0.25181  0.00730  Biso   1.000  H
  H330     1.0000 0.13369  0.58143  0.09690  Biso   1.000  H
  H331     1.0000 0.19401  0.73859  0.06962  Biso   1.000  H
  N84      1.0000 0.17171  0.38034  0.12286  Biso   1.000  N
  H332     1.0000 0.12490  0.45718  0.11830  Biso   1.000  H
  C335     1.0000 0.12034  0.26838  0.09031  Biso   1.000  C
  C336     1.0000 0.13685  0.32935  0.13211  Biso   1.000  C
  H333     1.0000 0.10109  0.23192  0.10129  Biso   1.000  H
  H334     1.0000 0.15270  0.24548  0.09132  Biso   1.000  H
  H335     1.0000 0.15573  0.30972  0.17083  Biso   1.000  H
  H336     1.0000 0.10449  0.35460  0.12890  Biso   1.000  H
  C337     1.0000 0.82858  0.30457  0.29222  Biso   1.000  C
  N85      1.0000 0.79408  0.33878  0.23868  Biso   1.000  N
  H337     1.0000 0.80631  0.28339  0.30881  Biso   1.000  H
  H338     1.0000 0.85211  0.34109  0.31891  Biso   1.000  H
  C338     1.0000 0.86240  0.24661  0.28462  Biso   1.000  C
  C339     1.0000 0.79885  0.40592  0.23746  Biso   1.000  C
  N86      1.0000 0.90149  0.27851  0.26875  Biso   1.000  N
  H339     1.0000 0.88120  0.21942  0.32021  Biso   1.000  H
  H340     1.0000 0.83922  0.21288  0.25481  Biso   1.000  H
  C340     1.0000 0.76580  0.45123  0.18895  Biso   1.000  C
  H341     1.0000 0.82551  0.42860  0.27001  Biso   1.000  H
  C341     1.0000 0.90061  0.25878  0.22264  Biso   1.000  C
  C342     1.0000 0.72683  0.42292  0.13828  Biso   1.000  C
  C343     1.0000 0.77290  0.52453  0.19431  Biso   1.000  C
  C344     1.0000 0.93740  0.28790  0.20187  Biso   1.000  C
  H342     1.0000 0.87522  0.22382  0.20051  Biso   1.000  H
  C345     1.0000 0.69587  0.46753  0.09394  Biso   1.000  C
  H343     1.0000 0.72160  0.37251  0.13431  Biso   1.000  H
  C346     1.0000 0.74188  0.57097  0.15031  Biso   1.000  C
  H344     1.0000 0.79952  0.54378  0.22859  Biso   1.000  H
  C347     1.0000 0.93505  0.26194  0.15154  Biso   1.000  C
  C348     1.0000 0.97535  0.34034  0.23210  Biso   1.000  C
  C349     1.0000 0.65625  0.43509  0.04108  Biso   1.000  C
  C350     1.0000 0.70362  0.54180  0.10066  Biso   1.000  C
  C351     1.0000 0.75047  0.64872  0.15749  Biso   1.000  C
  C352     1.0000 0.96972  0.28892  0.13080  Biso   1.000  C
  H345     1.0000 0.90992  0.22580  0.13110  Biso   1.000  H
  H346     1.0000 0.97700  0.35820  0.26638  Biso   1.000  H
  C353     1.0000 0.01048  0.36645  0.21272  Biso   1.000  C
  H347     1.0000 0.65239  0.38442  0.03939  Biso   1.000  H
  N87      1.0000 0.62705  0.47145  0.99759  Biso   1.000  N
  H348     1.0000 0.68209  0.57268  0.07051  Biso   1.000  H
  N88      1.0000 0.78798  0.67537  0.20170  Biso   1.000  N
  H349     1.0000 0.72742  0.67993  0.12840  Biso   1.000  H
  C354     1.0000 0.96855  0.26414  0.07765  Biso   1.000  C
  C355     1.0000 0.00721  0.34018  0.16201  Biso   1.000  C
  C356     1.0000 0.05161  0.41922  0.24573  Biso   1.000  C
  C357     1.0000 0.59012  0.43069  0.94836  Biso   1.000  C
  C358     1.0000 0.79201  0.75328  0.20545  Biso   1.000  C
  N89      1.0000 0.93524  0.21894  0.04484  Biso   1.000  N
  H350     1.0000 0.99430  0.28318  0.06722  Biso   1.000  H
  H351     1.0000 0.03119  0.35793  0.14850  Biso   1.000  H
  N90      1.0000 0.08776  0.43879  0.23227  Biso   1.000  N
  H352     1.0000 0.05112  0.43938  0.27841  Biso   1.000  H
  C359     1.0000 0.59922  0.44785  0.89740  Biso   1.000  C
  H353     1.0000 0.55285  0.44270  0.94000  Biso   1.000  H
  H354     1.0000 0.59551  0.37879  0.95668  Biso   1.000  H
  H355     1.0000 0.77971  0.77050  0.23298  Biso   1.000  H
  H356     1.0000 0.76850  0.77441  0.16821  Biso   1.000  H
  C360     1.0000 0.84907  0.77736  0.22369  Biso   1.000  C
  C361     1.0000 0.94173  0.19921  0.99481  Biso   1.000  C
  C362     1.0000 0.12789  0.48920  0.27001  Biso   1.000  C
  N91      1.0000 0.65215  0.42367  0.90584  Biso   1.000  N
  H357     1.0000 0.57134  0.42410  0.86358  Biso   1.000  H
  H358     1.0000 0.59612  0.50029  0.89069  Biso   1.000  H
  N92      1.0000 0.86583  0.76058  0.18016  Biso   1.000  N
  H359     1.0000 0.85179  0.82970  0.23070  Biso   1.000  H
  H360     1.0000 0.87302  0.75291  0.25929  Biso   1.000  H
  C363     1.0000 0.88974  0.20746  0.94203  Biso   1.000  C
  H361     1.0000 0.95405  0.14880  0.99831  Biso   1.000  H
  H362     1.0000 0.96933  0.23009  0.99219  Biso   1.000  H
  C364     1.0000 0.12930  0.55542  0.23763  Biso   1.000  C
  H363     1.0000 0.16349  0.46603  0.28690  Biso   1.000  H
  H364     1.0000 0.11921  0.50308  0.30100  Biso   1.000  H
  C365     1.0000 0.68103  0.47048  0.89808  Biso   1.000  C
  C366     1.0000 0.91024  0.72835  0.19642  Biso   1.000  C
  N93      1.0000 0.87333  0.28227  0.93059  Biso   1.000  N
  H365     1.0000 0.89384  0.18741  0.90960  Biso   1.000  H
  H366     1.0000 0.86155  0.17980  0.94621  Biso   1.000  H
  N94      1.0000 0.07941  0.59462  0.21901  Biso   1.000  N
  H367     1.0000 0.15951  0.58652  0.26212  Biso   1.000  H
  H368     1.0000 0.13460  0.54132  0.20448  Biso   1.000  H
  C367     1.0000 0.73422  0.45450  0.90166  Biso   1.000  C
  H369     1.0000 0.66784  0.51810  0.88950  Biso   1.000  H
  C368     1.0000 0.93282  0.70787  0.15783  Biso   1.000  C
  H370     1.0000 0.92980  0.71682  0.23531  Biso   1.000  H
  C369     1.0000 0.82725  0.29835  0.92590  Biso   1.000  C
  C370     1.0000 0.05487  0.61172  0.16720  Biso   1.000  C
  C371     1.0000 0.75626  0.38565  0.91349  Biso   1.000  C
  C372     1.0000 0.76193  0.50925  0.89098  Biso   1.000  C
  C373     1.0000 0.98153  0.67280  0.17940  Biso   1.000  C
  C374     1.0000 0.90610  0.72240  0.10015  Biso   1.000  C
  C375     1.0000 0.80548  0.37128  0.91395  Biso   1.000  C
  H371     1.0000 0.80604  0.26141  0.93042  Biso   1.000  H
  C376     1.0000 0.00444  0.65205  0.14402  Biso   1.000  C
  H372     1.0000 0.06962  0.59799  0.14259  Biso   1.000  H
  H373     1.0000 0.73752  0.34812  0.92130  Biso   1.000  H
  C377     1.0000 0.81219  0.49638  0.89254  Biso   1.000  C
  H374     1.0000 0.74692  0.55601  0.88250  Biso   1.000  H
  H375     1.0000 0.99978  0.66261  0.21859  Biso   1.000  H
  C378     1.0000 0.92872  0.70443  0.06460  Biso   1.000  C
  H376     1.0000 0.87199  0.74481  0.08491  Biso   1.000  H
  C379     1.0000 0.83291  0.42785  0.90310  Biso   1.000  C
  C380     1.0000 0.97831  0.66920  0.08723  Biso   1.000  C
  C381     1.0000 0.84278  0.55461  0.88326  Biso   1.000  C
  C382     1.0000 0.89914  0.72283  0.00456  Biso   1.000  C
  H377     1.0000 0.86634  0.41863  0.90310  Biso   1.000  H
  H378     1.0000 0.99410  0.65693  0.06329  Biso   1.000  H
  N95      1.0000 0.82831  0.61966  0.87713  Biso   1.000  N
  H379     1.0000 0.87512  0.54282  0.88169  Biso   1.000  H
  N96      1.0000 0.91427  0.70728  0.96736  Biso   1.000  N
  H380     1.0000 0.86643  0.74819  0.99270  Biso   1.000  H
  C383     1.0000 0.86318  0.67071  0.86789  Biso   1.000  C
  C384     1.0000 0.87972  0.73162  0.90969  Biso   1.000  C
  H381     1.0000 0.84432  0.69033  0.82921  Biso   1.000  H
  H382     1.0000 0.89554  0.64540  0.87110  Biso   1.000  H
  H383     1.0000 0.89894  0.76808  0.89871  Biso   1.000  H
  H384     1.0000 0.84734  0.75452  0.90872  Biso   1.000  H
