data_image0
_cell_length_a       25.23
_cell_length_b       25.23
_cell_length_c       29.41
_cell_angle_alpha    90
_cell_angle_beta     90
_cell_angle_gamma    90

_symmetry_space_group_name_H-M    "P 1"
_symmetry_int_tables_number       1

loop_
  _symmetry_equiv_pos_as_xyz
  'x, y, z'

loop_
  _atom_site_label
  _atom_site_occupancy
  _atom_site_fract_x
  _atom_site_fract_y
  _atom_site_fract_z
  _atom_site_thermal_displace_type
  _atom_site_B_iso_or_equiv
  _atom_site_type_symbol
  C1       1.0000 0.50270  0.49620  0.27280  Biso   1.000  C
  C2       1.0000 0.46901  0.52818  0.29789  Biso   1.000  C
  C3       1.0000 0.50380  0.49730  0.22720  Biso   1.000  C
  H1       1.0000 0.52541  0.47321  0.28810  Biso   1.000  H
  C4       1.0000 0.43551  0.56468  0.27341  Biso   1.000  C
  H2       1.0000 0.46790  0.52620  0.32941  Biso   1.000  H
  C5       1.0000 0.47182  0.53099  0.20211  Biso   1.000  C
  H3       1.0000 0.52679  0.47459  0.21190  Biso   1.000  H
  C6       1.0000 0.39469  0.60059  0.29439  Biso   1.000  C
  C7       1.0000 0.43532  0.56449  0.22659  Biso   1.000  C
  H4       1.0000 0.47380  0.53210  0.17059  Biso   1.000  H
  C8       1.0000 0.34261  0.58680  0.27110  Biso   1.000  C
  H5       1.0000 0.39310  0.59849  0.32771  Biso   1.000  H
  C9       1.0000 0.40880  0.65541  0.27650  Biso   1.000  C
  C10      1.0000 0.39941  0.60531  0.20561  Biso   1.000  C
  C11      1.0000 0.29461  0.57511  0.29340  Biso   1.000  C
  C12      1.0000 0.34459  0.59120  0.22350  Biso   1.000  C
  C13      1.0000 0.41320  0.65739  0.22890  Biso   1.000  C
  C14      1.0000 0.41772  0.70000  0.30170  Biso   1.000  C
  H6       1.0000 0.40151  0.60690  0.17229  Biso   1.000  H
  C15      1.0000 0.24871  0.56599  0.26811  Biso   1.000  C
  H7       1.0000 0.29350  0.57329  0.32499  Biso   1.000  H
  C16      1.0000 0.30000  0.58228  0.19830  Biso   1.000  C
  C17      1.0000 0.42489  0.70539  0.20660  Biso   1.000  C
  C18      1.0000 0.43072  0.74701  0.27929  Biso   1.000  C
  H8       1.0000 0.41518  0.69909  0.33319  Biso   1.000  H
  C19      1.0000 0.25299  0.56928  0.22071  Biso   1.000  C
  C20      1.0000 0.19802  0.55371  0.29259  Biso   1.000  C
  H9       1.0000 0.30091  0.58482  0.16681  Biso   1.000  H
  C21      1.0000 0.43401  0.75129  0.23189  Biso   1.000  C
  H10      1.0000 0.42671  0.70650  0.17501  Biso   1.000  H
  O1       1.0000 0.43484  0.79461  0.30503  Biso   1.000  O
  O2       1.0000 0.20539  0.56516  0.19497  Biso   1.000  O
  C22      1.0000 0.16488  0.60198  0.30360  Biso   1.000  C
  H11      1.0000 0.20638  0.53539  0.32071  Biso   1.000  H
  H12      1.0000 0.17709  0.52981  0.27399  Biso   1.000  H
  C23      1.0000 0.44629  0.80198  0.20741  Biso   1.000  C
  S1       1.0000 0.48977  0.81102  0.32768  Biso   1.000  S
  S2       1.0000 0.18898  0.51023  0.17232  Biso   1.000  S
  C24      1.0000 0.12390  0.61752  0.27290  Biso   1.000  C
  C25      1.0000 0.17091  0.63179  0.34349  Biso   1.000  C
  C26      1.0000 0.39802  0.83512  0.19640  Biso   1.000  C
  H13      1.0000 0.46461  0.79362  0.17929  Biso   1.000  H
  H14      1.0000 0.47019  0.82291  0.22601  Biso   1.000  H
  O3       1.0000 0.53119  0.80139  0.29742  Biso   1.000  O
  O4       1.0000 0.47749  0.86560  0.34101  Biso   1.000  O
  C27      1.0000 0.49691  0.77170  0.37229  Biso   1.000  C
  C28      1.0000 0.22830  0.50309  0.12771  Biso   1.000  C
  O5       1.0000 0.19861  0.46881  0.20258  Biso   1.000  O
  O6       1.0000 0.13440  0.52251  0.15899  Biso   1.000  O
  C29      1.0000 0.09362  0.66151  0.28320  Biso   1.000  C
  H15      1.0000 0.11780  0.59830  0.24641  Biso   1.000  H
  O7       1.0000 0.21447  0.61795  0.37300  Biso   1.000  O
  C30      1.0000 0.14170  0.67471  0.35379  Biso   1.000  C
  C31      1.0000 0.38248  0.87610  0.22710  Biso   1.000  C
  C32      1.0000 0.36821  0.82909  0.15651  Biso   1.000  C
  C33      1.0000 0.54328  0.77301  0.40619  Biso   1.000  C
  C34      1.0000 0.22699  0.45672  0.09381  Biso   1.000  C
  C35      1.0000 0.04582  0.68240  0.25580  Biso   1.000  C
  C36      1.0000 0.10012  0.69021  0.32452  Biso   1.000  C
  S3       1.0000 0.19647  0.58807  0.41863  Biso   1.000  S
  H16      1.0000 0.14871  0.69409  0.38001  Biso   1.000  H
  C37      1.0000 0.33849  0.90638  0.21680  Biso   1.000  C
  H17      1.0000 0.40170  0.88220  0.25359  Biso   1.000  H
  O8       1.0000 0.38205  0.78553  0.12700  Biso   1.000  O
  C38      1.0000 0.32529  0.85830  0.14621  Biso   1.000  C
  C39      1.0000 0.53520  0.79390  0.45389  Biso   1.000  C
  C40      1.0000 0.58601  0.81300  0.39881  Biso   1.000  C
  C41      1.0000 0.57380  0.72049  0.41010  Biso   1.000  C
  C42      1.0000 0.18700  0.41399  0.10119  Biso   1.000  C
  C43      1.0000 0.20610  0.46480  0.04611  Biso   1.000  C
  C44      1.0000 0.27951  0.42620  0.08990  Biso   1.000  C
  C45      1.0000 0.05700  0.74209  0.24849  Biso   1.000  C
  H18      1.0000 0.04039  0.66310  0.22720  Biso   1.000  H
  C46      1.0000 0.99861  0.67788  0.28790  Biso   1.000  C
  C47      1.0000 0.06080  0.73369  0.33189  Biso   1.000  C
  O9       1.0000 0.18026  0.53512  0.40843  Biso   1.000  O
  O10      1.0000 0.15989  0.62109  0.44254  Biso   1.000  O
  C48      1.0000 0.25910  0.58339  0.44668  Biso   1.000  C
  C49      1.0000 0.31760  0.95418  0.24420  Biso   1.000  C
  C50      1.0000 0.30979  0.89988  0.17548  Biso   1.000  C
  S4       1.0000 0.41193  0.80353  0.08137  Biso   1.000  S
  H19      1.0000 0.30591  0.85129  0.11999  Biso   1.000  H
  C51      1.0000 0.52759  0.85279  0.44349  Biso   1.000  C
  C52      1.0000 0.49830  0.75929  0.47950  Biso   1.000  C
  C53      1.0000 0.58981  0.78458  0.46919  Biso   1.000  C
  O11      1.0000 0.59100  0.84538  0.36379  Biso   1.000  O
  C54      1.0000 0.62679  0.80452  0.43451  Biso   1.000  C
  H20      1.0000 0.55002  0.69029  0.41030  Biso   1.000  H
  H21      1.0000 0.59948  0.71649  0.38579  Biso   1.000  H
  C55      1.0000 0.60059  0.72830  0.45610  Biso   1.000  C
  O12      1.0000 0.15462  0.40900  0.13621  Biso   1.000  O
  C56      1.0000 0.19548  0.37321  0.06549  Biso   1.000  C
  C57      1.0000 0.21542  0.41019  0.03081  Biso   1.000  C
  C58      1.0000 0.14721  0.47241  0.05651  Biso   1.000  C
  C59      1.0000 0.24071  0.50170  0.02050  Biso   1.000  C
  H22      1.0000 0.30971  0.45002  0.08970  Biso   1.000  H
  H23      1.0000 0.28351  0.40052  0.11421  Biso   1.000  H
  C60      1.0000 0.27170  0.39941  0.04390  Biso   1.000  C
  C61      1.0000 0.06060  0.76821  0.20881  Biso   1.000  C
  C62      1.0000 0.06421  0.76972  0.29000  Biso   1.000  C
  C63      1.0000 0.00531  0.70539  0.32900  Biso   1.000  C
  C64      1.0000 0.95462  0.64792  0.28052  Biso   1.000  C
  H24      1.0000 0.06619  0.75272  0.36059  Biso   1.000  H
  H25      1.0000 0.25379  0.56330  0.47440  Biso   1.000  H
  H26      1.0000 0.28240  0.56270  0.42741  Biso   1.000  H
  C65      1.0000 0.28859  0.63409  0.45940  Biso   1.000  C
  C66      1.0000 0.25791  0.94300  0.25151  Biso   1.000  C
  H27      1.0000 0.33690  0.95961  0.27280  Biso   1.000  H
  C67      1.0000 0.32212  0.00139  0.21210  Biso   1.000  C
  C68      1.0000 0.26631  0.93920  0.16811  Biso   1.000  C
  O13      1.0000 0.46488  0.81974  0.09157  Biso   1.000  O
  O14      1.0000 0.37891  0.84011  0.05746  Biso   1.000  O
  C69      1.0000 0.41661  0.74090  0.05332  Biso   1.000  C
  H28      1.0000 0.56060  0.87111  0.44760  Biso   1.000  H
  H29      1.0000 0.50139  0.86730  0.46369  Biso   1.000  H
  H30      1.0000 0.51589  0.85692  0.41261  Biso   1.000  H
  H31      1.0000 0.49691  0.72509  0.46528  Biso   1.000  H
  H32      1.0000 0.46361  0.77491  0.47950  Biso   1.000  H
  H33      1.0000 0.51058  0.75569  0.51020  Biso   1.000  H
  H34      1.0000 0.59778  0.79421  0.50071  Biso   1.000  H
  H35      1.0000 0.65299  0.77832  0.42571  Biso   1.000  H
  H36      1.0000 0.64411  0.83710  0.44359  Biso   1.000  H
  H37      1.0000 0.58589  0.70408  0.47841  Biso   1.000  H
  H38      1.0000 0.63841  0.72192  0.45369  Biso   1.000  H
  H39      1.0000 0.22168  0.34701  0.07429  Biso   1.000  H
  H40      1.0000 0.16290  0.35589  0.05641  Biso   1.000  H
  H41      1.0000 0.20579  0.40222  0.99929  Biso   1.000  H
  H42      1.0000 0.12889  0.43940  0.05240  Biso   1.000  H
  H43      1.0000 0.13270  0.49861  0.03631  Biso   1.000  H
  H44      1.0000 0.14308  0.48411  0.08739  Biso   1.000  H
  H45      1.0000 0.27491  0.50309  0.03472  Biso   1.000  H
  H46      1.0000 0.22509  0.53639  0.02050  Biso   1.000  H
  H47      1.0000 0.24431  0.48942  0.98980  Biso   1.000  H
  H48      1.0000 0.29592  0.41411  0.02159  Biso   1.000  H
  H49      1.0000 0.27808  0.36159  0.04631  Biso   1.000  H
  C70      1.0000 0.07261  0.82200  0.20911  Biso   1.000  C
  H50      1.0000 0.05521  0.75061  0.18150  Biso   1.000  H
  C71      1.0000 0.07368  0.82279  0.29028  Biso   1.000  C
  C72      1.0000 0.96679  0.70341  0.36151  Biso   1.000  C
  H51      1.0000 0.95002  0.62818  0.25400  Biso   1.000  H
  C73      1.0000 0.91518  0.64851  0.31659  Biso   1.000  C
  C74      1.0000 0.32612  0.62881  0.49969  Biso   1.000  C
  C75      1.0000 0.32949  0.65180  0.42231  Biso   1.000  C
  C76      1.0000 0.25648  0.68482  0.47011  Biso   1.000  C
  C77      1.0000 0.23179  0.93940  0.29119  Biso   1.000  C
  C78      1.0000 0.23028  0.93579  0.21000  Biso   1.000  C
  C79      1.0000 0.29461  0.99469  0.17100  Biso   1.000  C
  C80      1.0000 0.35208  0.04538  0.21948  Biso   1.000  C
  H52      1.0000 0.24728  0.93381  0.13941  Biso   1.000  H
  H53      1.0000 0.43670  0.74621  0.02560  Biso   1.000  H
  H54      1.0000 0.43730  0.71760  0.07259  Biso   1.000  H
  C81      1.0000 0.36591  0.71141  0.04060  Biso   1.000  C
  O15      1.0000 0.08315  0.84776  0.16715  Biso   1.000  O
  C82      1.0000 0.07800  0.85149  0.24930  Biso   1.000  C
  H55      1.0000 0.07741  0.84039  0.31789  Biso   1.000  H
  C83      1.0000 0.92128  0.67709  0.35641  Biso   1.000  C
  H56      1.0000 0.97249  0.72128  0.38871  Biso   1.000  H
  H57      1.0000 0.88438  0.62881  0.31272  Biso   1.000  H
  C84      1.0000 0.36920  0.58609  0.49300  Biso   1.000  C
  C85      1.0000 0.29841  0.61799  0.54590  Biso   1.000  C
  C86      1.0000 0.34748  0.68660  0.49470  Biso   1.000  C
  O16      1.0000 0.33080  0.63908  0.38341  Biso   1.000  O
  C87      1.0000 0.37039  0.68799  0.44801  Biso   1.000  C
  H58      1.0000 0.22529  0.67689  0.48810  Biso   1.000  H
  H59      1.0000 0.24602  0.70309  0.44250  Biso   1.000  H
  C88      1.0000 0.29822  0.71780  0.49799  Biso   1.000  C
  C89      1.0000 0.17800  0.92739  0.29089  Biso   1.000  C
  H60      1.0000 0.24939  0.94479  0.31850  Biso   1.000  H
  C90      1.0000 0.17721  0.92632  0.20972  Biso   1.000  C
  C91      1.0000 0.29659  0.03321  0.13849  Biso   1.000  C
  H61      1.0000 0.37182  0.05002  0.24600  Biso   1.000  H
  C92      1.0000 0.35149  0.08482  0.18341  Biso   1.000  C
  C93      1.0000 0.37119  0.67388  0.00031  Biso   1.000  C
  C94      1.0000 0.34820  0.67051  0.07769  Biso   1.000  C
  C95      1.0000 0.31518  0.74352  0.02989  Biso   1.000  C
  S5       1.0000 0.03329  0.86548  0.13611  Biso   1.000  S
  C96      1.0000 0.09080  0.90920  0.25002  Biso   1.000  C
  H62      1.0000 0.89501  0.67788  0.37851  Biso   1.000  H
  H63      1.0000 0.35462  0.55180  0.49929  Biso   1.000  H
  H64      1.0000 0.39822  0.59291  0.51329  Biso   1.000  H
  H65      1.0000 0.38169  0.58712  0.46209  Biso   1.000  H
  H66      1.0000 0.27150  0.64419  0.55100  Biso   1.000  H
  H67      1.0000 0.32410  0.61962  0.56991  Biso   1.000  H
  H68      1.0000 0.28248  0.58339  0.54529  Biso   1.000  H
  H69      1.0000 0.37340  0.69592  0.51819  Biso   1.000  H
  H70      1.0000 0.40591  0.67329  0.44719  Biso   1.000  H
  H71      1.0000 0.37091  0.72370  0.43570  Biso   1.000  H
  H72      1.0000 0.30281  0.75279  0.48490  Biso   1.000  H
  H73      1.0000 0.28712  0.72160  0.52941  Biso   1.000  H
  C97      1.0000 0.14851  0.92200  0.25070  Biso   1.000  C
  O17      1.0000 0.15224  0.91685  0.33285  Biso   1.000  O
  H74      1.0000 0.15961  0.92259  0.18211  Biso   1.000  H
  C98      1.0000 0.32291  0.07872  0.14359  Biso   1.000  C
  H75      1.0000 0.27872  0.02751  0.11129  Biso   1.000  H
  H76      1.0000 0.37119  0.11562  0.18728  Biso   1.000  H
  C99      1.0000 0.41391  0.63080  0.00700  Biso   1.000  C
  C100     1.0000 0.31340  0.65252  0.00530  Biso   1.000  C
  C101     1.0000 0.38201  0.70159  0.95410  Biso   1.000  C
  O18      1.0000 0.36092  0.66920  0.11659  Biso   1.000  O
  C102     1.0000 0.31201  0.62961  0.05199  Biso   1.000  C
  H77      1.0000 0.32311  0.77471  0.01190  Biso   1.000  H
  H78      1.0000 0.29691  0.75398  0.05750  Biso   1.000  H
  C103     1.0000 0.28220  0.70178  0.00201  Biso   1.000  C
  O19      1.0000 0.01149  0.91201  0.15420  Biso   1.000  O
  C104     1.0000 0.06631  0.88090  0.08521  Biso   1.000  C
  O20      1.0000 0.99996  0.82101  0.13030  Biso   1.000  O
  H79      1.0000 0.07499  0.93500  0.28099  Biso   1.000  H
  H80      1.0000 0.06500  0.92501  0.21901  Biso   1.000  H
  S6       1.0000 0.13452  0.96671  0.36389  Biso   1.000  S
  H81      1.0000 0.32212  0.10499  0.12149  Biso   1.000  H
  H82      1.0000 0.44820  0.64538  0.00071  Biso   1.000  H
  H83      1.0000 0.41288  0.61831  0.03791  Biso   1.000  H
  H84      1.0000 0.40709  0.60178  0.98671  Biso   1.000  H
  H85      1.0000 0.30408  0.62660  0.98181  Biso   1.000  H
  H86      1.0000 0.35581  0.72850  0.94900  Biso   1.000  H
  H87      1.0000 0.38038  0.67590  0.93009  Biso   1.000  H
  H88      1.0000 0.41661  0.71752  0.95471  Biso   1.000  H
  H89      1.0000 0.32671  0.59409  0.05281  Biso   1.000  H
  H90      1.0000 0.27630  0.62909  0.06430  Biso   1.000  H
  H91      1.0000 0.24721  0.69719  0.01510  Biso   1.000  H
  H92      1.0000 0.27840  0.71288  0.97059  Biso   1.000  H
  H93      1.0000 0.03952  0.89080  0.06321  Biso   1.000  H
  H94      1.0000 0.08751  0.91229  0.09089  Biso   1.000  H
  C105     1.0000 0.10250  0.84019  0.06229  Biso   1.000  C
  O21      1.0000 0.08799  0.98851  0.34580  Biso   1.000  O
  C106     1.0000 0.11910  0.93369  0.41479  Biso   1.000  C
  O22      1.0000 0.17899  0.00004  0.36970  Biso   1.000  O
  C107     1.0000 0.10682  0.84582  0.01020  Biso   1.000  C
  C108     1.0000 0.08942  0.78062  0.06851  Biso   1.000  C
  C109     1.0000 0.16219  0.84800  0.07470  Biso   1.000  C
  H95      1.0000 0.10920  0.96048  0.43679  Biso   1.000  H
  H96      1.0000 0.08771  0.91249  0.40911  Biso   1.000  H
  C110     1.0000 0.15981  0.89750  0.43771  Biso   1.000  C
  C111     1.0000 0.15042  0.80000  0.00660  Biso   1.000  C
  C112     1.0000 0.05501  0.83270  0.98388  Biso   1.000  C
  C113     1.0000 0.12580  0.89849  0.99279  Biso   1.000  C
  H97      1.0000 0.05141  0.77471  0.06671  Biso   1.000  H
  H98      1.0000 0.10198  0.76801  0.09769  Biso   1.000  H
  C114     1.0000 0.11839  0.75121  0.02900  Biso   1.000  C
  O23      1.0000 0.17820  0.87491  0.10422  Biso   1.000  O
  C115     1.0000 0.19251  0.82002  0.03812  Biso   1.000  C
  C116     1.0000 0.15418  0.89318  0.48980  Biso   1.000  C
  C117     1.0000 0.21938  0.91058  0.43149  Biso   1.000  C
  C118     1.0000 0.15200  0.83781  0.42530  Biso   1.000  C
  H99      1.0000 0.16278  0.79318  0.97548  Biso   1.000  H
  H100     1.0000 0.03908  0.80139  0.99650  Biso   1.000  H
  H101     1.0000 0.06310  0.82679  0.95240  Biso   1.000  H
  H102     1.0000 0.03072  0.86179  0.98660  Biso   1.000  H
  H103     1.0000 0.14871  0.91459  0.01489  Biso   1.000  H
  H104     1.0000 0.09592  0.92120  0.98739  Biso   1.000  H
  H105     1.0000 0.14479  0.89350  0.96491  Biso   1.000  H
  H106     1.0000 0.09350  0.73559  0.00768  Biso   1.000  H
  H107     1.0000 0.14221  0.72402  0.04029  Biso   1.000  H
  H108     1.0000 0.21312  0.79088  0.05060  Biso   1.000  H
  H109     1.0000 0.21621  0.84419  0.02251  Biso   1.000  H
  C119     1.0000 0.16730  0.94499  0.51612  Biso   1.000  C
  C120     1.0000 0.10151  0.87420  0.50721  Biso   1.000  C
  C121     1.0000 0.20000  0.84958  0.49340  Biso   1.000  C
  H110     1.0000 0.22529  0.94859  0.43329  Biso   1.000  H
  H111     1.0000 0.23199  0.89802  0.40231  Biso   1.000  H
  C122     1.0000 0.24879  0.88161  0.47100  Biso   1.000  C
  O24      1.0000 0.12509  0.82180  0.39578  Biso   1.000  O
  C123     1.0000 0.17998  0.80749  0.46188  Biso   1.000  C
  H112     1.0000 0.19861  0.96092  0.50350  Biso   1.000  H
  H113     1.0000 0.17321  0.93690  0.54760  Biso   1.000  H
  H114     1.0000 0.13821  0.96928  0.51340  Biso   1.000  H
  H115     1.0000 0.07880  0.90408  0.51261  Biso   1.000  H
  H116     1.0000 0.10650  0.85521  0.53509  Biso   1.000  H
  H117     1.0000 0.08541  0.85129  0.48511  Biso   1.000  H
  H118     1.0000 0.20682  0.83722  0.52452  Biso   1.000  H
  H119     1.0000 0.26441  0.90650  0.49232  Biso   1.000  H
  H120     1.0000 0.27598  0.85779  0.45971  Biso   1.000  H
  H121     1.0000 0.20912  0.78688  0.44940  Biso   1.000  H
  H122     1.0000 0.15581  0.78379  0.47749  Biso   1.000  H
  C124     1.0000 0.62580  0.60151  0.25719  Biso   1.000  C
  C125     1.0000 0.60682  0.65418  0.23982  Biso   1.000  C
  H123     1.0000 0.59592  0.57880  0.26260  Biso   1.000  H
  H124     1.0000 0.64479  0.60650  0.28511  Biso   1.000  H
  H125     1.0000 0.64871  0.58541  0.23509  Biso   1.000  H
  C126     1.0000 0.60250  0.65981  0.18769  Biso   1.000  C
  C127     1.0000 0.55501  0.66730  0.26610  Biso   1.000  C
  C128     1.0000 0.65042  0.70000  0.24339  Biso   1.000  C
  C129     1.0000 0.56631  0.61910  0.16481  Biso   1.000  C
  C130     1.0000 0.58942  0.71938  0.18150  Biso   1.000  C
  C131     1.0000 0.66219  0.65200  0.17531  Biso   1.000  C
  H126     1.0000 0.53908  0.69861  0.25349  Biso   1.000  H
  H127     1.0000 0.56310  0.67321  0.29759  Biso   1.000  H
  H128     1.0000 0.53072  0.63821  0.26341  Biso   1.000  H
  C132     1.0000 0.61839  0.74879  0.22101  Biso   1.000  C
  C133     1.0000 0.69251  0.67998  0.21190  Biso   1.000  C
  H129     1.0000 0.66278  0.70682  0.27450  Biso   1.000  H
  S7       1.0000 0.53329  0.63452  0.11391  Biso   1.000  S
  H130     1.0000 0.53952  0.60920  0.18681  Biso   1.000  H
  H131     1.0000 0.58751  0.58771  0.15910  Biso   1.000  H
  H132     1.0000 0.55141  0.72529  0.18330  Biso   1.000  H
  H133     1.0000 0.60198  0.73199  0.15230  Biso   1.000  H
  O25      1.0000 0.67820  0.62509  0.14580  Biso   1.000  O
  H134     1.0000 0.59350  0.76441  0.24230  Biso   1.000  H
  H135     1.0000 0.64221  0.77598  0.20969  Biso   1.000  H
  H136     1.0000 0.71312  0.70912  0.19939  Biso   1.000  H
  H137     1.0000 0.71621  0.65581  0.22751  Biso   1.000  H
  O26      1.0000 0.51149  0.58799  0.09578  Biso   1.000  O
  O27      1.0000 0.58315  0.65224  0.08283  Biso   1.000  O
  O28      1.0000 0.49996  0.67899  0.11969  Biso   1.000  O
  C134     1.0000 0.57261  0.67800  0.04090  Biso   1.000  C
  C135     1.0000 0.57800  0.64851  0.00071  Biso   1.000  C
  C136     1.0000 0.56060  0.73179  0.04121  Biso   1.000  C
  C137     1.0000 0.59080  0.59080  0.00000  Biso   1.000  C
  C138     1.0000 0.57368  0.67721  0.95971  Biso   1.000  C
  H138     1.0000 0.55521  0.74939  0.06851  Biso   1.000  H
  C139     1.0000 0.55700  0.75791  0.00150  Biso   1.000  C
  H139     1.0000 0.56500  0.57499  0.03101  Biso   1.000  H
  C140     1.0000 0.64851  0.57800  0.99929  Biso   1.000  C
  H140     1.0000 0.57499  0.56500  0.96899  Biso   1.000  H
  C141     1.0000 0.56421  0.73028  0.95998  Biso   1.000  C
  H141     1.0000 0.57741  0.65961  0.93210  Biso   1.000  H
  C142     1.0000 0.54582  0.81760  0.99419  Biso   1.000  C
  C143     1.0000 0.67721  0.57368  0.04029  Biso   1.000  C
  C144     1.0000 0.67800  0.57261  0.95910  Biso   1.000  C
  C145     1.0000 0.56080  0.76631  0.91809  Biso   1.000  C
  H142     1.0000 0.54039  0.83690  0.02282  Biso   1.000  H
  C146     1.0000 0.59362  0.83849  0.96681  Biso   1.000  C
  C147     1.0000 0.49861  0.82212  0.96209  Biso   1.000  C
  C148     1.0000 0.73028  0.56421  0.04002  Biso   1.000  C
  H143     1.0000 0.65961  0.57741  0.06790  Biso   1.000  H
  O29      1.0000 0.65224  0.58315  0.91717  Biso   1.000  O
  C149     1.0000 0.73179  0.56060  0.95879  Biso   1.000  C
  H144     1.0000 0.56619  0.74728  0.88939  Biso   1.000  H
  C150     1.0000 0.60012  0.80979  0.92550  Biso   1.000  C
  C151     1.0000 0.50531  0.79461  0.92101  Biso   1.000  C
  C152     1.0000 0.62390  0.88248  0.97712  Biso   1.000  C
  C153     1.0000 0.45462  0.85208  0.96950  Biso   1.000  C
  C154     1.0000 0.76631  0.56080  0.08191  Biso   1.000  C
  C155     1.0000 0.75791  0.55700  0.99850  Biso   1.000  C
  S8       1.0000 0.63452  0.53329  0.88609  Biso   1.000  S
  H145     1.0000 0.74939  0.55521  0.93149  Biso   1.000  H
  C156     1.0000 0.64170  0.82529  0.89619  Biso   1.000  C
  C157     1.0000 0.46679  0.79659  0.88851  Biso   1.000  C
  H146     1.0000 0.61780  0.90170  0.00360  Biso   1.000  H
  C158     1.0000 0.66488  0.89802  0.94641  Biso   1.000  C
  H147     1.0000 0.45002  0.87182  0.99599  Biso   1.000  H
  C159     1.0000 0.41518  0.85149  0.93339  Biso   1.000  C
  H148     1.0000 0.74728  0.56619  0.11061  Biso   1.000  H
  C160     1.0000 0.80979  0.60012  0.07450  Biso   1.000  C
  C161     1.0000 0.79461  0.50531  0.07899  Biso   1.000  C
  C162     1.0000 0.81760  0.54582  0.00581  Biso   1.000  C
  O30      1.0000 0.58799  0.51149  0.90422  Biso   1.000  O
  O31      1.0000 0.67899  0.49996  0.88031  Biso   1.000  O
  C163     1.0000 0.61910  0.56631  0.83519  Biso   1.000  C
  C164     1.0000 0.67091  0.86821  0.90649  Biso   1.000  C
  H149     1.0000 0.64871  0.80591  0.87001  Biso   1.000  H
  C165     1.0000 0.42128  0.82291  0.89361  Biso   1.000  C
  H150     1.0000 0.47249  0.77872  0.86131  Biso   1.000  H
  C166     1.0000 0.69802  0.94629  0.95740  Biso   1.000  C
  H151     1.0000 0.38438  0.87119  0.93730  Biso   1.000  H
  C167     1.0000 0.83849  0.59362  0.03319  Biso   1.000  C
  C168     1.0000 0.82529  0.64170  0.10381  Biso   1.000  C
  C169     1.0000 0.82212  0.49861  0.03791  Biso   1.000  C
  C170     1.0000 0.79659  0.46679  0.11149  Biso   1.000  C
  H152     1.0000 0.83690  0.54039  0.97718  Biso   1.000  H
  H153     1.0000 0.60920  0.53952  0.81319  Biso   1.000  H
  H154     1.0000 0.58771  0.58751  0.84090  Biso   1.000  H
  C171     1.0000 0.65981  0.60250  0.81231  Biso   1.000  C
  O32      1.0000 0.71447  0.88205  0.87701  Biso   1.000  O
  H155     1.0000 0.39501  0.82212  0.87151  Biso   1.000  H
  H156     1.0000 0.70638  0.96461  0.92931  Biso   1.000  H
  H157     1.0000 0.67709  0.97019  0.97599  Biso   1.000  H
  C172     1.0000 0.74871  0.93401  0.98191  Biso   1.000  C
  C173     1.0000 0.88248  0.62390  0.02288  Biso   1.000  C
  C174     1.0000 0.86821  0.67091  0.09351  Biso   1.000  C
  H158     1.0000 0.80591  0.64871  0.12999  Biso   1.000  H
  C175     1.0000 0.85208  0.45462  0.03050  Biso   1.000  C
  C176     1.0000 0.82291  0.42128  0.10639  Biso   1.000  C
  H159     1.0000 0.77872  0.47249  0.13869  Biso   1.000  H
  C177     1.0000 0.65418  0.60682  0.76018  Biso   1.000  C
  C178     1.0000 0.71938  0.58942  0.81850  Biso   1.000  C
  C179     1.0000 0.65200  0.66219  0.82469  Biso   1.000  C
  S9       1.0000 0.69647  0.91193  0.83135  Biso   1.000  S
  C180     1.0000 0.75299  0.93072  0.02931  Biso   1.000  C
  C181     1.0000 0.79461  0.92489  0.95661  Biso   1.000  C
  C182     1.0000 0.89802  0.66488  0.05359  Biso   1.000  C
  H160     1.0000 0.90170  0.61780  0.99640  Biso   1.000  H
  O33      1.0000 0.88205  0.71447  0.12299  Biso   1.000  O
  C183     1.0000 0.85149  0.41518  0.06661  Biso   1.000  C
  H161     1.0000 0.87182  0.45002  0.00401  Biso   1.000  H
  H162     1.0000 0.82212  0.39501  0.12849  Biso   1.000  H
  C184     1.0000 0.66730  0.55501  0.73390  Biso   1.000  C
  C185     1.0000 0.60151  0.62580  0.74281  Biso   1.000  C
  C186     1.0000 0.70000  0.65042  0.75661  Biso   1.000  C
  H163     1.0000 0.72529  0.55141  0.81670  Biso   1.000  H
  H164     1.0000 0.73199  0.60198  0.84770  Biso   1.000  H
  C187     1.0000 0.74879  0.61839  0.77899  Biso   1.000  C
  O34      1.0000 0.62509  0.67820  0.85420  Biso   1.000  O
  C188     1.0000 0.67998  0.69251  0.78810  Biso   1.000  C
  O35      1.0000 0.68026  0.96488  0.84158  Biso   1.000  O
  O36      1.0000 0.65989  0.87891  0.80748  Biso   1.000  O
  C189     1.0000 0.75910  0.91661  0.80330  Biso   1.000  C
  O37      1.0000 0.70539  0.93484  0.05505  Biso   1.000  O
  C190     1.0000 0.80000  0.91772  0.05168  Biso   1.000  C
  C191     1.0000 0.84261  0.91320  0.97888  Biso   1.000  C
  H165     1.0000 0.79350  0.92671  0.92499  Biso   1.000  H
  C192     1.0000 0.94629  0.69802  0.04260  Biso   1.000  C
  S10      1.0000 0.91193  0.69647  0.16865  Biso   1.000  S
  H166     1.0000 0.87119  0.38438  0.06270  Biso   1.000  H
  H167     1.0000 0.69861  0.53908  0.74651  Biso   1.000  H
  H168     1.0000 0.67321  0.56310  0.70241  Biso   1.000  H
  H169     1.0000 0.63821  0.53072  0.73659  Biso   1.000  H
  H170     1.0000 0.57880  0.59592  0.73740  Biso   1.000  H
  H171     1.0000 0.60650  0.64479  0.71489  Biso   1.000  H
  H172     1.0000 0.58541  0.64871  0.76491  Biso   1.000  H
  H173     1.0000 0.70682  0.66278  0.72550  Biso   1.000  H
  H174     1.0000 0.76441  0.59350  0.75770  Biso   1.000  H
  H175     1.0000 0.77598  0.64221  0.79031  Biso   1.000  H
  H176     1.0000 0.70912  0.71312  0.80061  Biso   1.000  H
  H177     1.0000 0.65581  0.71621  0.77249  Biso   1.000  H
  H178     1.0000 0.75379  0.93670  0.77559  Biso   1.000  H
  H179     1.0000 0.78240  0.93730  0.82261  Biso   1.000  H
  C193     1.0000 0.78859  0.86591  0.79062  Biso   1.000  C
  S11      1.0000 0.68898  0.98977  0.07769  Biso   1.000  S
  H180     1.0000 0.80091  0.91518  0.08320  Biso   1.000  H
  C194     1.0000 0.84459  0.90880  0.02649  Biso   1.000  C
  C195     1.0000 0.89469  0.89941  0.95559  Biso   1.000  C
  H181     1.0000 0.96461  0.70638  0.07069  Biso   1.000  H
  H182     1.0000 0.97019  0.67709  0.02401  Biso   1.000  H
  C196     1.0000 0.93401  0.74871  0.01809  Biso   1.000  C
  O38      1.0000 0.96488  0.68026  0.15842  Biso   1.000  O
  O39      1.0000 0.87891  0.65989  0.19252  Biso   1.000  O
  C197     1.0000 0.91661  0.75910  0.19670  Biso   1.000  C
  C198     1.0000 0.82612  0.87119  0.75029  Biso   1.000  C
  C199     1.0000 0.82949  0.84820  0.82771  Biso   1.000  C
  C200     1.0000 0.75648  0.81518  0.77990  Biso   1.000  C
  O40      1.0000 0.63440  0.97749  0.09099  Biso   1.000  O
  C201     1.0000 0.72830  0.99691  0.12231  Biso   1.000  C
  O41      1.0000 0.69861  0.03119  0.04740  Biso   1.000  O
  C202     1.0000 0.89941  0.89469  0.04441  Biso   1.000  C
  C203     1.0000 0.90880  0.84459  0.97351  Biso   1.000  C
  H183     1.0000 0.89310  0.90151  0.92231  Biso   1.000  H
  C204     1.0000 0.93551  0.93532  0.97661  Biso   1.000  C
  C205     1.0000 0.92489  0.79461  0.04339  Biso   1.000  C
  C206     1.0000 0.93072  0.75299  0.97069  Biso   1.000  C
  H184     1.0000 0.93670  0.75379  0.22441  Biso   1.000  H
  H185     1.0000 0.93730  0.78240  0.17739  Biso   1.000  H
  C207     1.0000 0.86591  0.78859  0.20938  Biso   1.000  C
  C208     1.0000 0.86920  0.91391  0.75699  Biso   1.000  C
  C209     1.0000 0.79841  0.88201  0.70411  Biso   1.000  C
  C210     1.0000 0.84748  0.81340  0.75529  Biso   1.000  C
  O42      1.0000 0.83080  0.86092  0.86661  Biso   1.000  O
  C211     1.0000 0.87039  0.81201  0.80201  Biso   1.000  C
  H186     1.0000 0.72529  0.82311  0.76188  Biso   1.000  H
  H187     1.0000 0.74602  0.79691  0.80751  Biso   1.000  H
  C212     1.0000 0.79822  0.78220  0.75199  Biso   1.000  C
  C213     1.0000 0.72699  0.04328  0.15621  Biso   1.000  C
  C214     1.0000 0.91320  0.84261  0.02112  Biso   1.000  C
  H188     1.0000 0.90151  0.89310  0.07769  Biso   1.000  H
  C215     1.0000 0.93532  0.93551  0.02339  Biso   1.000  C
  C216     1.0000 0.91772  0.80000  0.94832  Biso   1.000  C
  C217     1.0000 0.96901  0.97182  0.95209  Biso   1.000  C
  H189     1.0000 0.92671  0.79350  0.07501  Biso   1.000  H
  O43      1.0000 0.93484  0.70539  0.94495  Biso   1.000  O
  C218     1.0000 0.87119  0.82612  0.24971  Biso   1.000  C
  C219     1.0000 0.84820  0.82949  0.17229  Biso   1.000  C
  C220     1.0000 0.81518  0.75648  0.22010  Biso   1.000  C
  H190     1.0000 0.85462  0.94820  0.75070  Biso   1.000  H
  H191     1.0000 0.89822  0.90709  0.73669  Biso   1.000  H
  H192     1.0000 0.88169  0.91288  0.78790  Biso   1.000  H
  H193     1.0000 0.77150  0.85581  0.69901  Biso   1.000  H
  H194     1.0000 0.82410  0.88038  0.68011  Biso   1.000  H
  H195     1.0000 0.78248  0.91661  0.70469  Biso   1.000  H
  H196     1.0000 0.87340  0.80408  0.73179  Biso   1.000  H
  H197     1.0000 0.90591  0.82671  0.80279  Biso   1.000  H
  H198     1.0000 0.87091  0.77630  0.81431  Biso   1.000  H
  H199     1.0000 0.80281  0.74721  0.76511  Biso   1.000  H
  H200     1.0000 0.78712  0.77840  0.72061  Biso   1.000  H
  C221     1.0000 0.70610  0.03520  0.20391  Biso   1.000  C
  C222     1.0000 0.68700  0.08601  0.14879  Biso   1.000  C
  C223     1.0000 0.77951  0.07380  0.16012  Biso   1.000  C
  C224     1.0000 0.97182  0.96901  0.04791  Biso   1.000  C
  H201     1.0000 0.91518  0.80091  0.91680  Biso   1.000  H
  H202     1.0000 0.96790  0.97380  0.92061  Biso   1.000  H
  C225     1.0000 0.00270  0.00380  0.97718  Biso   1.000  C
  S12      1.0000 0.98977  0.68898  0.92231  Biso   1.000  S
  C226     1.0000 0.91391  0.86920  0.24301  Biso   1.000  C
  C227     1.0000 0.88201  0.79841  0.29589  Biso   1.000  C
  C228     1.0000 0.81340  0.84748  0.24471  Biso   1.000  C
  O44      1.0000 0.86092  0.83080  0.13339  Biso   1.000  O
  C229     1.0000 0.81201  0.87039  0.19799  Biso   1.000  C
  H203     1.0000 0.82311  0.72529  0.23812  Biso   1.000  H
  H204     1.0000 0.79691  0.74602  0.19249  Biso   1.000  H
  C230     1.0000 0.78220  0.79822  0.24801  Biso   1.000  C
  C231     1.0000 0.74071  0.99830  0.22951  Biso   1.000  C
  C232     1.0000 0.64721  0.02759  0.19351  Biso   1.000  C
  C233     1.0000 0.71542  0.08981  0.21921  Biso   1.000  C
  O45      1.0000 0.65462  0.09100  0.11380  Biso   1.000  O
  C234     1.0000 0.69548  0.12679  0.18450  Biso   1.000  C
  H205     1.0000 0.80971  0.05002  0.16029  Biso   1.000  H
  H206     1.0000 0.78351  0.09948  0.13580  Biso   1.000  H
  C235     1.0000 0.77170  0.10059  0.20609  Biso   1.000  C
  H207     1.0000 0.97380  0.96790  0.07939  Biso   1.000  H
  C236     1.0000 0.00380  0.00270  0.02282  Biso   1.000  C
  H208     1.0000 0.02541  0.02679  0.96188  Biso   1.000  H
  O46      1.0000 0.97749  0.63440  0.90901  Biso   1.000  O
  C237     1.0000 0.99691  0.72830  0.87769  Biso   1.000  C
  O47      1.0000 0.03119  0.69861  0.95260  Biso   1.000  O
  H209     1.0000 0.94820  0.85462  0.24930  Biso   1.000  H
  H210     1.0000 0.90709  0.89822  0.26331  Biso   1.000  H
  H211     1.0000 0.91288  0.88169  0.21210  Biso   1.000  H
  H212     1.0000 0.85581  0.77150  0.30099  Biso   1.000  H
  H213     1.0000 0.88038  0.82410  0.31989  Biso   1.000  H
  H214     1.0000 0.91661  0.78248  0.29531  Biso   1.000  H
  H215     1.0000 0.80408  0.87340  0.26821  Biso   1.000  H
  H216     1.0000 0.82671  0.90591  0.19721  Biso   1.000  H
  H217     1.0000 0.77630  0.87091  0.18569  Biso   1.000  H
  H218     1.0000 0.74721  0.80281  0.23489  Biso   1.000  H
  H219     1.0000 0.77840  0.78712  0.27939  Biso   1.000  H
  H220     1.0000 0.77491  0.99691  0.21530  Biso   1.000  H
  H221     1.0000 0.72509  0.96361  0.22951  Biso   1.000  H
  H222     1.0000 0.74431  0.01058  0.26018  Biso   1.000  H
  H223     1.0000 0.62889  0.06060  0.19759  Biso   1.000  H
  H224     1.0000 0.63270  0.00139  0.21370  Biso   1.000  H
  H225     1.0000 0.64308  0.01589  0.16260  Biso   1.000  H
  H226     1.0000 0.70579  0.09778  0.25070  Biso   1.000  H
  H227     1.0000 0.72168  0.15299  0.17569  Biso   1.000  H
  H228     1.0000 0.66290  0.14411  0.19361  Biso   1.000  H
  H229     1.0000 0.79592  0.08589  0.22839  Biso   1.000  H
  H230     1.0000 0.77808  0.13841  0.20371  Biso   1.000  H
  H231     1.0000 0.02679  0.02541  0.03812  Biso   1.000  H
  C238     1.0000 0.04328  0.72699  0.84379  Biso   1.000  C
  C239     1.0000 0.03520  0.70610  0.79609  Biso   1.000  C
  C240     1.0000 0.08601  0.68700  0.85121  Biso   1.000  C
  C241     1.0000 0.07380  0.77951  0.83988  Biso   1.000  C
  C242     1.0000 0.99830  0.74071  0.77049  Biso   1.000  C
  C243     1.0000 0.02759  0.64721  0.80649  Biso   1.000  C
  C244     1.0000 0.08981  0.71542  0.78079  Biso   1.000  C
  O48      1.0000 0.09100  0.65462  0.88620  Biso   1.000  O
  C245     1.0000 0.12679  0.69548  0.81550  Biso   1.000  C
  H232     1.0000 0.05002  0.80971  0.83971  Biso   1.000  H
  H233     1.0000 0.09948  0.78351  0.86420  Biso   1.000  H
  C246     1.0000 0.10059  0.77170  0.79391  Biso   1.000  C
  H234     1.0000 0.99691  0.77491  0.78470  Biso   1.000  H
  H235     1.0000 0.96361  0.72509  0.77049  Biso   1.000  H
  H236     1.0000 0.01058  0.74431  0.73982  Biso   1.000  H
  H237     1.0000 0.06060  0.62889  0.80241  Biso   1.000  H
  H238     1.0000 0.00139  0.63270  0.78630  Biso   1.000  H
  H239     1.0000 0.01589  0.64308  0.83740  Biso   1.000  H
  H240     1.0000 0.09778  0.70579  0.74930  Biso   1.000  H
  H241     1.0000 0.15299  0.72168  0.82431  Biso   1.000  H
  H242     1.0000 0.14411  0.66290  0.80639  Biso   1.000  H
  H243     1.0000 0.08589  0.79592  0.77161  Biso   1.000  H
  H244     1.0000 0.13841  0.77808  0.79629  Biso   1.000  H
  O49      1.0000 0.41201  0.48851  0.40422  Biso   1.000  O
  S13      1.0000 0.36548  0.46671  0.38609  Biso   1.000  S
  O50      1.0000 0.34776  0.41685  0.41717  Biso   1.000  O
  O51      1.0000 0.32101  0.50004  0.38031  Biso   1.000  O
  C247     1.0000 0.38090  0.43369  0.33519  Biso   1.000  C
  C248     1.0000 0.32200  0.42739  0.45910  Biso   1.000  C
  H245     1.0000 0.39080  0.46048  0.31319  Biso   1.000  H
  H246     1.0000 0.41229  0.41249  0.34090  Biso   1.000  H
  C249     1.0000 0.34019  0.39750  0.31231  Biso   1.000  C
  C250     1.0000 0.35149  0.42200  0.49929  Biso   1.000  C
  C251     1.0000 0.26821  0.43940  0.45879  Biso   1.000  C
  C252     1.0000 0.34582  0.39318  0.26018  Biso   1.000  C
  C253     1.0000 0.28062  0.41058  0.31850  Biso   1.000  C
  C254     1.0000 0.34800  0.33781  0.32469  Biso   1.000  C
  C255     1.0000 0.40920  0.40920  0.50000  Biso   1.000  C
  C256     1.0000 0.32279  0.42632  0.54029  Biso   1.000  C
  H247     1.0000 0.25061  0.44479  0.43149  Biso   1.000  H
  C257     1.0000 0.24209  0.44300  0.49850  Biso   1.000  C
  C258     1.0000 0.33270  0.44499  0.23390  Biso   1.000  C
  C259     1.0000 0.39849  0.37420  0.24281  Biso   1.000  C
  C260     1.0000 0.30000  0.34958  0.25661  Biso   1.000  C
  H248     1.0000 0.27471  0.44859  0.31670  Biso   1.000  H
  H249     1.0000 0.26801  0.39802  0.34770  Biso   1.000  H
  C261     1.0000 0.25121  0.38161  0.27899  Biso   1.000  C
  O52      1.0000 0.37491  0.32180  0.35420  Biso   1.000  O
  C262     1.0000 0.32002  0.30749  0.28810  Biso   1.000  C
  C263     1.0000 0.42200  0.35149  0.50071  Biso   1.000  C
  H250     1.0000 0.43500  0.42501  0.53101  Biso   1.000  H
  H251     1.0000 0.42501  0.43500  0.46899  Biso   1.000  H
  C264     1.0000 0.26972  0.43579  0.54002  Biso   1.000  C
  H252     1.0000 0.34039  0.42259  0.56790  Biso   1.000  H
  C265     1.0000 0.18240  0.45418  0.50581  Biso   1.000  C
  H253     1.0000 0.30139  0.46092  0.24651  Biso   1.000  H
  H254     1.0000 0.32679  0.43690  0.20241  Biso   1.000  H
  H255     1.0000 0.36179  0.46928  0.23659  Biso   1.000  H
  H256     1.0000 0.42120  0.40408  0.23740  Biso   1.000  H
  H257     1.0000 0.39350  0.35521  0.21489  Biso   1.000  H
  H258     1.0000 0.41459  0.35129  0.26491  Biso   1.000  H
  H259     1.0000 0.29318  0.33722  0.22550  Biso   1.000  H
  H260     1.0000 0.23559  0.40650  0.25770  Biso   1.000  H
  H261     1.0000 0.22402  0.35779  0.29031  Biso   1.000  H
  H262     1.0000 0.29088  0.28688  0.30061  Biso   1.000  H
  H263     1.0000 0.34419  0.28379  0.27249  Biso   1.000  H
  C266     1.0000 0.42632  0.32279  0.45971  Biso   1.000  C
  C267     1.0000 0.42739  0.32200  0.54090  Biso   1.000  C
  C268     1.0000 0.23369  0.43920  0.58191  Biso   1.000  C
  H264     1.0000 0.16310  0.45961  0.47718  Biso   1.000  H
  C269     1.0000 0.16151  0.40638  0.53319  Biso   1.000  C
  C270     1.0000 0.17788  0.50139  0.53791  Biso   1.000  C
  C271     1.0000 0.43579  0.26972  0.45998  Biso   1.000  C
  H265     1.0000 0.42259  0.34039  0.43210  Biso   1.000  H
  C272     1.0000 0.43940  0.26821  0.54121  Biso   1.000  C
  O53      1.0000 0.41685  0.34776  0.58283  Biso   1.000  O
  H266     1.0000 0.25272  0.43381  0.61061  Biso   1.000  H
  C273     1.0000 0.19021  0.39988  0.57450  Biso   1.000  C
  C274     1.0000 0.20539  0.49469  0.57899  Biso   1.000  C
  C275     1.0000 0.11752  0.37610  0.52288  Biso   1.000  C
  C276     1.0000 0.14792  0.54538  0.53050  Biso   1.000  C
  C277     1.0000 0.43920  0.23369  0.41809  Biso   1.000  C
  C278     1.0000 0.44300  0.24209  0.50150  Biso   1.000  C
  H267     1.0000 0.44479  0.25061  0.56851  Biso   1.000  H
  S14      1.0000 0.46671  0.36548  0.61391  Biso   1.000  S
  C279     1.0000 0.17471  0.35830  0.60381  Biso   1.000  C
  C280     1.0000 0.20341  0.53321  0.61149  Biso   1.000  C
  C281     1.0000 0.10198  0.33512  0.55359  Biso   1.000  C
  H268     1.0000 0.09830  0.38220  0.49640  Biso   1.000  H
  H269     1.0000 0.12818  0.55002  0.50401  Biso   1.000  H
  C282     1.0000 0.14851  0.58482  0.56661  Biso   1.000  C
  C283     1.0000 0.39988  0.19021  0.42550  Biso   1.000  C
  H270     1.0000 0.43381  0.25272  0.38939  Biso   1.000  H
  C284     1.0000 0.49469  0.20539  0.42101  Biso   1.000  C
  C285     1.0000 0.45418  0.18240  0.49419  Biso   1.000  C
  O54      1.0000 0.48851  0.41201  0.59578  Biso   1.000  O
  O55      1.0000 0.50004  0.32101  0.61969  Biso   1.000  O
  C286     1.0000 0.43369  0.38090  0.66481  Biso   1.000  C
  C287     1.0000 0.13179  0.32909  0.59351  Biso   1.000  C
  H271     1.0000 0.19409  0.35129  0.62999  Biso   1.000  H
  C288     1.0000 0.17709  0.57872  0.60639  Biso   1.000  C
  H272     1.0000 0.22128  0.52751  0.63869  Biso   1.000  H
  C289     1.0000 0.05371  0.30198  0.54260  Biso   1.000  C
  H273     1.0000 0.12881  0.61562  0.56270  Biso   1.000  H
  C290     1.0000 0.35830  0.17471  0.39619  Biso   1.000  C
  C291     1.0000 0.40638  0.16151  0.46681  Biso   1.000  C
  C292     1.0000 0.50139  0.17788  0.46209  Biso   1.000  C
  C293     1.0000 0.53321  0.20341  0.38851  Biso   1.000  C
  H274     1.0000 0.45961  0.16310  0.52282  Biso   1.000  H
  H275     1.0000 0.46048  0.39080  0.68681  Biso   1.000  H
  H276     1.0000 0.41249  0.41229  0.65910  Biso   1.000  H
  C294     1.0000 0.39750  0.34019  0.68769  Biso   1.000  C
  O56      1.0000 0.11795  0.28553  0.62299  Biso   1.000  O
  H277     1.0000 0.17788  0.60499  0.62849  Biso   1.000  H
  C295     1.0000 0.06599  0.25129  0.51809  Biso   1.000  C
  H278     1.0000 0.03539  0.29362  0.57069  Biso   1.000  H
  H279     1.0000 0.02981  0.32291  0.52401  Biso   1.000  H
  C296     1.0000 0.32909  0.13179  0.40649  Biso   1.000  C
  H280     1.0000 0.35129  0.19409  0.37001  Biso   1.000  H
  C297     1.0000 0.37610  0.11752  0.47712  Biso   1.000  C
  C298     1.0000 0.54538  0.14792  0.46950  Biso   1.000  C
  C299     1.0000 0.57872  0.17709  0.39361  Biso   1.000  C
  H281     1.0000 0.52751  0.22128  0.36131  Biso   1.000  H
  C300     1.0000 0.39318  0.34582  0.73982  Biso   1.000  C
  C301     1.0000 0.41058  0.28062  0.68150  Biso   1.000  C
  C302     1.0000 0.33781  0.34800  0.67531  Biso   1.000  C
  S15      1.0000 0.08807  0.30353  0.66865  Biso   1.000  S
  C303     1.0000 0.07511  0.20539  0.54339  Biso   1.000  C
  C304     1.0000 0.06928  0.24701  0.47069  Biso   1.000  C
  O57      1.0000 0.28553  0.11795  0.37701  Biso   1.000  O
  C305     1.0000 0.33512  0.10198  0.44641  Biso   1.000  C
  H282     1.0000 0.38220  0.09830  0.50360  Biso   1.000  H
  H283     1.0000 0.55002  0.12818  0.49599  Biso   1.000  H
  C306     1.0000 0.58482  0.14851  0.43339  Biso   1.000  C
  H284     1.0000 0.60499  0.17788  0.37151  Biso   1.000  H
  C307     1.0000 0.44499  0.33270  0.76610  Biso   1.000  C
  C308     1.0000 0.37420  0.39849  0.75719  Biso   1.000  C
  C309     1.0000 0.34958  0.30000  0.74339  Biso   1.000  C
  H285     1.0000 0.44859  0.27471  0.68330  Biso   1.000  H
  H286     1.0000 0.39802  0.26801  0.65230  Biso   1.000  H
  C310     1.0000 0.38161  0.25121  0.72101  Biso   1.000  C
  O58      1.0000 0.32180  0.37491  0.64580  Biso   1.000  O
  C311     1.0000 0.30749  0.32002  0.71190  Biso   1.000  C
  O59      1.0000 0.03512  0.31974  0.65842  Biso   1.000  O
  O60      1.0000 0.12109  0.34011  0.69252  Biso   1.000  O
  C312     1.0000 0.08339  0.24090  0.69670  Biso   1.000  C
  C313     1.0000 0.08680  0.15739  0.52112  Biso   1.000  C
  H287     1.0000 0.07329  0.20650  0.57501  Biso   1.000  H
  C314     1.0000 0.08228  0.20000  0.44832  Biso   1.000  C
  O61      1.0000 0.06516  0.29461  0.44495  Biso   1.000  O
  S16      1.0000 0.30353  0.08807  0.33135  Biso   1.000  S
  C315     1.0000 0.30198  0.05371  0.45740  Biso   1.000  C
  H288     1.0000 0.61562  0.12881  0.43730  Biso   1.000  H
  H289     1.0000 0.46092  0.30139  0.75349  Biso   1.000  H
  H290     1.0000 0.43690  0.32679  0.79759  Biso   1.000  H
  H291     1.0000 0.46928  0.36179  0.76341  Biso   1.000  H
  H292     1.0000 0.40408  0.42120  0.76260  Biso   1.000  H
  H293     1.0000 0.35521  0.39350  0.78511  Biso   1.000  H
  H294     1.0000 0.35129  0.41459  0.73509  Biso   1.000  H
  H295     1.0000 0.33722  0.29318  0.77450  Biso   1.000  H
  H296     1.0000 0.40650  0.23559  0.74230  Biso   1.000  H
  H297     1.0000 0.35779  0.22402  0.70969  Biso   1.000  H
  H298     1.0000 0.28688  0.29088  0.69939  Biso   1.000  H
  H299     1.0000 0.28379  0.34419  0.72751  Biso   1.000  H
  H300     1.0000 0.06330  0.24621  0.72441  Biso   1.000  H
  H301     1.0000 0.06270  0.21760  0.67739  Biso   1.000  H
  C316     1.0000 0.13409  0.21141  0.70938  Biso   1.000  C
  C317     1.0000 0.10059  0.10531  0.54441  Biso   1.000  C
  C318     1.0000 0.09120  0.15541  0.47351  Biso   1.000  C
  H302     1.0000 0.08482  0.19909  0.41680  Biso   1.000  H
  S17      1.0000 0.01023  0.31102  0.42231  Biso   1.000  S
  C319     1.0000 0.24090  0.08339  0.30330  Biso   1.000  C
  O62      1.0000 0.31974  0.03512  0.34158  Biso   1.000  O
  O63      1.0000 0.34011  0.12109  0.30748  Biso   1.000  O
  H303     1.0000 0.29362  0.03539  0.42931  Biso   1.000  H
  H304     1.0000 0.32291  0.02981  0.47599  Biso   1.000  H
  C320     1.0000 0.25129  0.06599  0.48191  Biso   1.000  C
  C321     1.0000 0.12881  0.17388  0.74971  Biso   1.000  C
  C322     1.0000 0.15180  0.17051  0.67229  Biso   1.000  C
  C323     1.0000 0.18482  0.24352  0.72010  Biso   1.000  C
  C324     1.0000 0.15541  0.09120  0.52649  Biso   1.000  C
  H305     1.0000 0.09849  0.10690  0.57769  Biso   1.000  H
  C325     1.0000 0.06468  0.06449  0.52339  Biso   1.000  C
  C326     1.0000 0.10531  0.10059  0.45559  Biso   1.000  C
  O64      1.0000 0.02251  0.36560  0.40901  Biso   1.000  O
  C327     1.0000 0.00309  0.27170  0.37769  Biso   1.000  C
  O65      1.0000 0.96881  0.30139  0.45260  Biso   1.000  O
  C328     1.0000 0.21141  0.13409  0.29062  Biso   1.000  C
  H306     1.0000 0.24621  0.06330  0.27559  Biso   1.000  H
  H307     1.0000 0.21760  0.06270  0.32261  Biso   1.000  H
  C329     1.0000 0.24701  0.06928  0.52931  Biso   1.000  C
  C330     1.0000 0.20539  0.07511  0.45661  Biso   1.000  C
  C331     1.0000 0.08609  0.13080  0.74301  Biso   1.000  C
  C332     1.0000 0.11799  0.20159  0.79589  Biso   1.000  C
  C333     1.0000 0.18660  0.15252  0.74471  Biso   1.000  C
  O66      1.0000 0.13908  0.16920  0.63339  Biso   1.000  O
  C334     1.0000 0.18799  0.12961  0.69799  Biso   1.000  C
  H308     1.0000 0.17689  0.27471  0.73812  Biso   1.000  H
  H309     1.0000 0.20309  0.25398  0.69249  Biso   1.000  H
  C335     1.0000 0.21780  0.20178  0.74801  Biso   1.000  C
  C336     1.0000 0.20000  0.08228  0.55168  Biso   1.000  C
  C337     1.0000 0.15739  0.08680  0.47888  Biso   1.000  C
  C338     1.0000 0.06449  0.06468  0.47661  Biso   1.000  C
  C339     1.0000 0.02818  0.03099  0.54791  Biso   1.000  C
  H310     1.0000 0.10690  0.09849  0.42231  Biso   1.000  H
  C340     1.0000 0.95672  0.27301  0.34379  Biso   1.000  C
  C341     1.0000 0.24352  0.18482  0.27990  Biso   1.000  C
  C342     1.0000 0.17388  0.12881  0.25029  Biso   1.000  C
  C343     1.0000 0.17051  0.15180  0.32771  Biso   1.000  C
  O67      1.0000 0.29461  0.06516  0.55505  Biso   1.000  O
  H311     1.0000 0.20650  0.07329  0.42499  Biso   1.000  H
  H312     1.0000 0.05180  0.14538  0.74930  Biso   1.000  H
  H313     1.0000 0.09291  0.10178  0.76331  Biso   1.000  H
  H314     1.0000 0.08712  0.11831  0.71210  Biso   1.000  H
  H315     1.0000 0.14419  0.22850  0.80099  Biso   1.000  H
  H316     1.0000 0.11962  0.17590  0.81989  Biso   1.000  H
  H317     1.0000 0.08339  0.21752  0.79531  Biso   1.000  H
  H318     1.0000 0.19592  0.12660  0.76821  Biso   1.000  H
  H319     1.0000 0.17329  0.09409  0.69721  Biso   1.000  H
  H320     1.0000 0.22370  0.12909  0.68569  Biso   1.000  H
  H321     1.0000 0.25279  0.19719  0.73489  Biso   1.000  H
  H322     1.0000 0.22160  0.21288  0.77939  Biso   1.000  H
  H323     1.0000 0.19909  0.08482  0.58320  Biso   1.000  H
  C344     1.0000 0.03099  0.02818  0.45209  Biso   1.000  C
  H324     1.0000 0.02620  0.03210  0.57939  Biso   1.000  H
  C345     1.0000 0.99620  0.99730  0.52282  Biso   1.000  C
  C346     1.0000 0.96480  0.29390  0.29609  Biso   1.000  C
  C347     1.0000 0.91399  0.31300  0.35121  Biso   1.000  C
  C348     1.0000 0.92620  0.22049  0.33988  Biso   1.000  C
  C349     1.0000 0.20178  0.21780  0.25199  Biso   1.000  C
  H325     1.0000 0.27471  0.17689  0.26188  Biso   1.000  H
  H326     1.0000 0.25398  0.20309  0.30751  Biso   1.000  H
  C350     1.0000 0.15252  0.18660  0.25529  Biso   1.000  C
  C351     1.0000 0.13080  0.08609  0.25699  Biso   1.000  C
  C352     1.0000 0.20159  0.11799  0.20411  Biso   1.000  C
  C353     1.0000 0.12961  0.18799  0.30201  Biso   1.000  C
  O68      1.0000 0.16920  0.13908  0.36661  Biso   1.000  O
  S18      1.0000 0.31102  0.01023  0.57769  Biso   1.000  S
  H327     1.0000 0.03210  0.02620  0.42061  Biso   1.000  H
  C354     1.0000 0.99730  0.99620  0.47718  Biso   1.000  C
  H328     1.0000 0.97321  0.97459  0.53812  Biso   1.000  H
  C355     1.0000 0.00170  0.25929  0.27049  Biso   1.000  C
  C356     1.0000 0.97241  0.35279  0.30649  Biso   1.000  C
  C357     1.0000 0.91019  0.28458  0.28079  Biso   1.000  C
  O69      1.0000 0.90900  0.34538  0.38620  Biso   1.000  O
  C358     1.0000 0.87321  0.30452  0.31550  Biso   1.000  C
  H329     1.0000 0.95002  0.19029  0.33971  Biso   1.000  H
  H330     1.0000 0.90052  0.21649  0.36420  Biso   1.000  H
  C359     1.0000 0.89941  0.22830  0.29391  Biso   1.000  C
  H331     1.0000 0.19719  0.25279  0.26511  Biso   1.000  H
  H332     1.0000 0.21288  0.22160  0.22061  Biso   1.000  H
  H333     1.0000 0.12660  0.19592  0.23179  Biso   1.000  H
  H334     1.0000 0.14538  0.05180  0.25070  Biso   1.000  H
  H335     1.0000 0.10178  0.09291  0.23669  Biso   1.000  H
  H336     1.0000 0.11831  0.08712  0.28790  Biso   1.000  H
  H337     1.0000 0.22850  0.14419  0.19901  Biso   1.000  H
  H338     1.0000 0.17590  0.11962  0.18011  Biso   1.000  H
  H339     1.0000 0.21752  0.08339  0.20469  Biso   1.000  H
  H340     1.0000 0.09409  0.17329  0.30279  Biso   1.000  H
  H341     1.0000 0.12909  0.22370  0.31431  Biso   1.000  H
  O70      1.0000 0.36560  0.02251  0.59099  Biso   1.000  O
  C360     1.0000 0.27170  0.00309  0.62231  Biso   1.000  C
  O71      1.0000 0.30139  0.96881  0.54740  Biso   1.000  O
  H342     1.0000 0.97459  0.97321  0.46188  Biso   1.000  H
  H343     1.0000 0.00309  0.22509  0.28470  Biso   1.000  H
  H344     1.0000 0.03639  0.27491  0.27049  Biso   1.000  H
  H345     1.0000 0.98942  0.25569  0.23982  Biso   1.000  H
  H346     1.0000 0.93940  0.37111  0.30241  Biso   1.000  H
  H347     1.0000 0.99861  0.36730  0.28630  Biso   1.000  H
  H348     1.0000 0.98411  0.35692  0.33740  Biso   1.000  H
  H349     1.0000 0.90222  0.29421  0.24930  Biso   1.000  H
  H350     1.0000 0.84701  0.27832  0.32431  Biso   1.000  H
  H351     1.0000 0.85589  0.33710  0.30639  Biso   1.000  H
  H352     1.0000 0.91411  0.20408  0.27161  Biso   1.000  H
  H353     1.0000 0.86159  0.22192  0.29629  Biso   1.000  H
  C361     1.0000 0.27301  0.95672  0.65621  Biso   1.000  C
  C362     1.0000 0.29390  0.96480  0.70391  Biso   1.000  C
  C363     1.0000 0.31300  0.91399  0.64879  Biso   1.000  C
  C364     1.0000 0.22049  0.92620  0.66012  Biso   1.000  C
  C365     1.0000 0.25929  0.00170  0.72951  Biso   1.000  C
  C366     1.0000 0.35279  0.97241  0.69351  Biso   1.000  C
  C367     1.0000 0.28458  0.91019  0.71921  Biso   1.000  C
  O72      1.0000 0.34538  0.90900  0.61380  Biso   1.000  O
  C368     1.0000 0.30452  0.87321  0.68450  Biso   1.000  C
  H354     1.0000 0.19029  0.95002  0.66029  Biso   1.000  H
  H355     1.0000 0.21649  0.90052  0.63580  Biso   1.000  H
  C369     1.0000 0.22830  0.89941  0.70609  Biso   1.000  C
  H356     1.0000 0.22509  0.00309  0.71530  Biso   1.000  H
  H357     1.0000 0.27491  0.03639  0.72951  Biso   1.000  H
  H358     1.0000 0.25569  0.98942  0.76018  Biso   1.000  H
  H359     1.0000 0.37111  0.93940  0.69759  Biso   1.000  H
  H360     1.0000 0.36730  0.99861  0.71370  Biso   1.000  H
  H361     1.0000 0.35692  0.98411  0.66260  Biso   1.000  H
  H362     1.0000 0.29421  0.90222  0.75070  Biso   1.000  H
  H363     1.0000 0.27832  0.84701  0.67569  Biso   1.000  H
  H364     1.0000 0.33710  0.85589  0.69361  Biso   1.000  H
  H365     1.0000 0.20408  0.91411  0.72839  Biso   1.000  H
  H366     1.0000 0.22192  0.86159  0.70371  Biso   1.000  H
  C370     1.0000 0.58609  0.36920  0.50700  Biso   1.000  C
  C371     1.0000 0.62881  0.32612  0.50031  Biso   1.000  C
  H367     1.0000 0.55180  0.35462  0.50071  Biso   1.000  H
  H368     1.0000 0.59291  0.39822  0.48671  Biso   1.000  H
  H369     1.0000 0.58712  0.38169  0.53791  Biso   1.000  H
  C372     1.0000 0.61799  0.29841  0.45410  Biso   1.000  C
  C373     1.0000 0.63409  0.28859  0.54060  Biso   1.000  C
  C374     1.0000 0.68660  0.34748  0.50530  Biso   1.000  C
  H370     1.0000 0.64419  0.27150  0.44900  Biso   1.000  H
  H371     1.0000 0.61962  0.32410  0.43009  Biso   1.000  H
  H372     1.0000 0.58339  0.28248  0.45471  Biso   1.000  H
  C375     1.0000 0.58339  0.25910  0.55332  Biso   1.000  C
  C376     1.0000 0.65180  0.32949  0.57769  Biso   1.000  C
  C377     1.0000 0.68482  0.25648  0.52989  Biso   1.000  C
  H373     1.0000 0.69592  0.37340  0.48181  Biso   1.000  H
  C378     1.0000 0.68799  0.37039  0.55199  Biso   1.000  C
  C379     1.0000 0.71780  0.29822  0.50201  Biso   1.000  C
  S19      1.0000 0.58807  0.19647  0.58137  Biso   1.000  S
  H374     1.0000 0.56330  0.25379  0.52560  Biso   1.000  H
  H375     1.0000 0.56270  0.28240  0.57259  Biso   1.000  H
  O73      1.0000 0.63908  0.33080  0.61659  Biso   1.000  O
  H376     1.0000 0.67689  0.22529  0.51190  Biso   1.000  H
  H377     1.0000 0.70309  0.24602  0.55750  Biso   1.000  H
  H378     1.0000 0.67329  0.40591  0.55281  Biso   1.000  H
  H379     1.0000 0.72370  0.37091  0.56430  Biso   1.000  H
  H380     1.0000 0.75279  0.30281  0.51510  Biso   1.000  H
  H381     1.0000 0.72160  0.28712  0.47059  Biso   1.000  H
  O74      1.0000 0.61795  0.21447  0.62700  Biso   1.000  O
  O75      1.0000 0.53512  0.18026  0.59157  Biso   1.000  O
  O76      1.0000 0.62109  0.15989  0.55746  Biso   1.000  O
  C380     1.0000 0.63179  0.17091  0.65651  Biso   1.000  C
  C381     1.0000 0.60198  0.16488  0.69640  Biso   1.000  C
  C382     1.0000 0.67471  0.14170  0.64621  Biso   1.000  C
  C383     1.0000 0.61752  0.12390  0.72710  Biso   1.000  C
  C384     1.0000 0.55371  0.19802  0.70741  Biso   1.000  C
  H382     1.0000 0.69409  0.14871  0.61999  Biso   1.000  H
  C385     1.0000 0.69021  0.10012  0.67548  Biso   1.000  C
  C386     1.0000 0.66151  0.09362  0.71680  Biso   1.000  C
  H383     1.0000 0.59830  0.11780  0.75359  Biso   1.000  H
  H384     1.0000 0.53539  0.20638  0.67929  Biso   1.000  H
  H385     1.0000 0.52981  0.17709  0.72601  Biso   1.000  H
  C387     1.0000 0.56599  0.24871  0.73189  Biso   1.000  C
  C388     1.0000 0.73369  0.06080  0.66811  Biso   1.000  C
  C389     1.0000 0.68240  0.04582  0.74420  Biso   1.000  C
  C390     1.0000 0.56928  0.25299  0.77929  Biso   1.000  C
  C391     1.0000 0.57511  0.29461  0.70660  Biso   1.000  C
  C392     1.0000 0.76972  0.06421  0.71000  Biso   1.000  C
  H386     1.0000 0.75272  0.06619  0.63941  Biso   1.000  H
  C393     1.0000 0.70539  0.00531  0.67100  Biso   1.000  C
  C394     1.0000 0.74209  0.05700  0.75151  Biso   1.000  C
  H387     1.0000 0.66310  0.04039  0.77280  Biso   1.000  H
  C395     1.0000 0.67788  0.99861  0.71210  Biso   1.000  C
  O77      1.0000 0.56516  0.20539  0.80503  Biso   1.000  O
  C396     1.0000 0.58228  0.30000  0.80170  Biso   1.000  C
  C397     1.0000 0.58680  0.34261  0.72890  Biso   1.000  C
  H388     1.0000 0.57329  0.29350  0.67501  Biso   1.000  H
  C398     1.0000 0.82279  0.07368  0.70972  Biso   1.000  C
  C399     1.0000 0.70341  0.96679  0.63849  Biso   1.000  C
  C400     1.0000 0.76821  0.06060  0.79119  Biso   1.000  C
  C401     1.0000 0.64792  0.95462  0.71948  Biso   1.000  C
  S20      1.0000 0.51023  0.18898  0.82768  Biso   1.000  S
  H389     1.0000 0.58482  0.30091  0.83319  Biso   1.000  H
  C402     1.0000 0.59120  0.34459  0.77650  Biso   1.000  C
  C403     1.0000 0.60059  0.39469  0.70561  Biso   1.000  C
  C404     1.0000 0.85149  0.07800  0.75070  Biso   1.000  C
  H390     1.0000 0.84039  0.07741  0.68211  Biso   1.000  H
  C405     1.0000 0.67709  0.92128  0.64359  Biso   1.000  C
  H391     1.0000 0.72128  0.97249  0.61129  Biso   1.000  H
  C406     1.0000 0.82200  0.07261  0.79089  Biso   1.000  C
  H392     1.0000 0.75061  0.05521  0.81850  Biso   1.000  H
  H393     1.0000 0.62818  0.95002  0.74600  Biso   1.000  H
  C407     1.0000 0.64851  0.91518  0.68341  Biso   1.000  C
  O78      1.0000 0.46881  0.19861  0.79742  Biso   1.000  O
  O79      1.0000 0.52251  0.13440  0.84101  Biso   1.000  O
  C408     1.0000 0.50309  0.22830  0.87229  Biso   1.000  C
  C409     1.0000 0.60531  0.39941  0.79439  Biso   1.000  C
  C410     1.0000 0.65541  0.40880  0.72350  Biso   1.000  C
  H394     1.0000 0.59849  0.39310  0.67229  Biso   1.000  H
  C411     1.0000 0.56468  0.43551  0.72659  Biso   1.000  C
  C412     1.0000 0.90920  0.09080  0.75002  Biso   1.000  C
  H395     1.0000 0.67788  0.89501  0.62149  Biso   1.000  H
  O80      1.0000 0.84776  0.08315  0.83285  Biso   1.000  O
  H396     1.0000 0.62881  0.88438  0.68728  Biso   1.000  H
  C413     1.0000 0.45672  0.22699  0.90619  Biso   1.000  C
  C414     1.0000 0.65739  0.41320  0.77110  Biso   1.000  C
  H397     1.0000 0.60690  0.40151  0.82771  Biso   1.000  H
  C415     1.0000 0.56449  0.43532  0.77341  Biso   1.000  C
  C416     1.0000 0.70000  0.41772  0.69830  Biso   1.000  C
  C417     1.0000 0.52818  0.46901  0.70211  Biso   1.000  C
  H398     1.0000 0.92501  0.06500  0.78099  Biso   1.000  H
  C418     1.0000 0.92200  0.14851  0.74930  Biso   1.000  C
  H399     1.0000 0.93500  0.07499  0.71901  Biso   1.000  H
  S21      1.0000 0.86548  0.03329  0.86389  Biso   1.000  S
  C419     1.0000 0.46480  0.20610  0.95389  Biso   1.000  C
  C420     1.0000 0.41399  0.18700  0.89881  Biso   1.000  C
  C421     1.0000 0.42620  0.27951  0.91010  Biso   1.000  C
  C422     1.0000 0.70539  0.42489  0.79340  Biso   1.000  C
  C423     1.0000 0.53099  0.47182  0.79789  Biso   1.000  C
  C424     1.0000 0.74701  0.43072  0.72071  Biso   1.000  C
  H400     1.0000 0.69909  0.41518  0.66681  Biso   1.000  H
  H401     1.0000 0.52620  0.46790  0.67059  Biso   1.000  H
  C425     1.0000 0.49620  0.50270  0.72720  Biso   1.000  C
  C426     1.0000 0.92739  0.17800  0.70911  Biso   1.000  C
  C427     1.0000 0.92632  0.17721  0.79028  Biso   1.000  C
  O81      1.0000 0.91201  0.01149  0.84580  Biso   1.000  O
  C428     1.0000 0.88090  0.06631  0.91479  Biso   1.000  C
  O82      1.0000 0.82101  0.99996  0.86970  Biso   1.000  O
  C429     1.0000 0.47241  0.14721  0.94349  Biso   1.000  C
  C430     1.0000 0.50170  0.24071  0.97950  Biso   1.000  C
  C431     1.0000 0.41019  0.21542  0.96919  Biso   1.000  C
  O83      1.0000 0.40900  0.15462  0.86379  Biso   1.000  O
  C432     1.0000 0.37321  0.19548  0.93451  Biso   1.000  C
  H402     1.0000 0.45002  0.30971  0.91030  Biso   1.000  H
  H403     1.0000 0.40052  0.28351  0.88579  Biso   1.000  H
  C433     1.0000 0.39941  0.27170  0.95610  Biso   1.000  C
  C434     1.0000 0.75129  0.43401  0.76811  Biso   1.000  C
  H404     1.0000 0.70650  0.42671  0.82499  Biso   1.000  H
  H405     1.0000 0.53210  0.47380  0.82941  Biso   1.000  H
  C435     1.0000 0.49730  0.50380  0.77280  Biso   1.000  C
  O84      1.0000 0.79461  0.43484  0.69497  Biso   1.000  O
  H406     1.0000 0.47321  0.52541  0.71190  Biso   1.000  H
  O85      1.0000 0.91685  0.15224  0.66715  Biso   1.000  O
  C436     1.0000 0.93940  0.23179  0.70881  Biso   1.000  C
  C437     1.0000 0.93579  0.23028  0.79000  Biso   1.000  C
  H407     1.0000 0.92259  0.15961  0.81789  Biso   1.000  H
  H408     1.0000 0.89080  0.03952  0.93679  Biso   1.000  H
  H409     1.0000 0.91229  0.08751  0.90911  Biso   1.000  H
  C438     1.0000 0.84019  0.10250  0.93771  Biso   1.000  C
  H410     1.0000 0.43940  0.12889  0.94760  Biso   1.000  H
  H411     1.0000 0.49861  0.13270  0.96369  Biso   1.000  H
  H412     1.0000 0.48411  0.14308  0.91261  Biso   1.000  H
  H413     1.0000 0.50309  0.27491  0.96528  Biso   1.000  H
  H414     1.0000 0.53639  0.22509  0.97950  Biso   1.000  H
  H415     1.0000 0.48942  0.24431  0.01020  Biso   1.000  H
  H416     1.0000 0.40222  0.20579  0.00071  Biso   1.000  H
  H417     1.0000 0.34701  0.22168  0.92571  Biso   1.000  H
  H418     1.0000 0.35589  0.16290  0.94359  Biso   1.000  H
  H419     1.0000 0.41411  0.29592  0.97841  Biso   1.000  H
  H420     1.0000 0.36159  0.27808  0.95369  Biso   1.000  H
  C439     1.0000 0.80198  0.44629  0.79259  Biso   1.000  C
  H421     1.0000 0.47459  0.52679  0.78810  Biso   1.000  H
  S22      1.0000 0.81102  0.48977  0.67232  Biso   1.000  S
  S23      1.0000 0.96671  0.13452  0.63611  Biso   1.000  S
  H422     1.0000 0.94479  0.24939  0.68150  Biso   1.000  H
  C440     1.0000 0.94300  0.25791  0.74849  Biso   1.000  C
  C441     1.0000 0.93920  0.26631  0.83189  Biso   1.000  C
  C442     1.0000 0.84582  0.10682  0.98980  Biso   1.000  C
  C443     1.0000 0.78062  0.08942  0.93149  Biso   1.000  C
  C444     1.0000 0.84800  0.16219  0.92530  Biso   1.000  C
  C445     1.0000 0.83512  0.39802  0.80360  Biso   1.000  C
  H423     1.0000 0.79362  0.46461  0.82071  Biso   1.000  H
  H424     1.0000 0.82291  0.47019  0.77399  Biso   1.000  H
  O86      1.0000 0.80139  0.53119  0.70258  Biso   1.000  O
  O87      1.0000 0.86560  0.47749  0.65899  Biso   1.000  O
  C446     1.0000 0.77170  0.49691  0.62771  Biso   1.000  C
  O88      1.0000 0.98851  0.08799  0.65420  Biso   1.000  O
  C447     1.0000 0.93369  0.11910  0.58521  Biso   1.000  C
  O89      1.0000 0.00004  0.17899  0.63030  Biso   1.000  O
  C448     1.0000 0.95418  0.31760  0.75580  Biso   1.000  C
  H425     1.0000 0.93381  0.24728  0.86059  Biso   1.000  H
  C449     1.0000 0.89988  0.30979  0.82452  Biso   1.000  C
  C450     1.0000 0.99469  0.29461  0.82900  Biso   1.000  C
  C451     1.0000 0.80000  0.15042  0.99340  Biso   1.000  C
  C452     1.0000 0.83270  0.05501  0.01612  Biso   1.000  C
  C453     1.0000 0.89849  0.12580  0.00721  Biso   1.000  C
  H426     1.0000 0.77471  0.05141  0.93329  Biso   1.000  H
  H427     1.0000 0.76801  0.10198  0.90231  Biso   1.000  H
  C454     1.0000 0.75121  0.11839  0.97100  Biso   1.000  C
  O90      1.0000 0.87491  0.17820  0.89578  Biso   1.000  O
  C455     1.0000 0.82002  0.19251  0.96188  Biso   1.000  C
  C456     1.0000 0.87610  0.38248  0.77290  Biso   1.000  C
  C457     1.0000 0.82909  0.36821  0.84349  Biso   1.000  C
  C458     1.0000 0.77301  0.54328  0.59381  Biso   1.000  C
  H428     1.0000 0.96048  0.10920  0.56321  Biso   1.000  H
  H429     1.0000 0.91249  0.08771  0.59089  Biso   1.000  H
  C459     1.0000 0.89750  0.15981  0.56229  Biso   1.000  C
  H430     1.0000 0.95961  0.33690  0.72720  Biso   1.000  H
  C460     1.0000 0.90638  0.33849  0.78320  Biso   1.000  C
  C461     1.0000 0.00139  0.32212  0.78790  Biso   1.000  C
  C462     1.0000 0.85830  0.32529  0.85379  Biso   1.000  C
  C463     1.0000 0.03321  0.29659  0.86151  Biso   1.000  C
  H431     1.0000 0.79318  0.16278  0.02452  Biso   1.000  H
  H432     1.0000 0.80139  0.03908  0.00350  Biso   1.000  H
  H433     1.0000 0.82679  0.06310  0.04760  Biso   1.000  H
  H434     1.0000 0.86179  0.03072  0.01340  Biso   1.000  H
  H435     1.0000 0.91459  0.14871  0.98511  Biso   1.000  H
  H436     1.0000 0.92120  0.09592  0.01261  Biso   1.000  H
  H437     1.0000 0.89350  0.14479  0.03509  Biso   1.000  H
  H438     1.0000 0.73559  0.09350  0.99232  Biso   1.000  H
  H439     1.0000 0.72402  0.14221  0.95971  Biso   1.000  H
  H440     1.0000 0.79088  0.21312  0.94940  Biso   1.000  H
  H441     1.0000 0.84419  0.21621  0.97749  Biso   1.000  H
  H442     1.0000 0.88220  0.40170  0.74641  Biso   1.000  H
  O91      1.0000 0.78553  0.38205  0.87300  Biso   1.000  O
  C464     1.0000 0.79390  0.53520  0.54611  Biso   1.000  C
  C465     1.0000 0.81300  0.58601  0.60119  Biso   1.000  C
  C466     1.0000 0.72049  0.57380  0.58990  Biso   1.000  C
  C467     1.0000 0.89318  0.15418  0.51020  Biso   1.000  C
  C468     1.0000 0.91058  0.21938  0.56851  Biso   1.000  C
  C469     1.0000 0.83781  0.15200  0.57470  Biso   1.000  C
  C470     1.0000 0.04538  0.35208  0.78052  Biso   1.000  C
  H443     1.0000 0.85129  0.30591  0.88001  Biso   1.000  H
  C471     1.0000 0.07872  0.32291  0.85641  Biso   1.000  C
  H444     1.0000 0.02751  0.27872  0.88871  Biso   1.000  H
  S24      1.0000 0.80353  0.41193  0.91863  Biso   1.000  S
  C472     1.0000 0.85279  0.52759  0.55651  Biso   1.000  C
  C473     1.0000 0.75929  0.49830  0.52050  Biso   1.000  C
  C474     1.0000 0.78458  0.58981  0.53081  Biso   1.000  C
  O92      1.0000 0.84538  0.59100  0.63621  Biso   1.000  O
  C475     1.0000 0.80452  0.62679  0.56549  Biso   1.000  C
  H445     1.0000 0.69029  0.55002  0.58970  Biso   1.000  H
  H446     1.0000 0.71649  0.59948  0.61421  Biso   1.000  H
  C476     1.0000 0.72830  0.60059  0.54390  Biso   1.000  C
  C477     1.0000 0.94499  0.16730  0.48388  Biso   1.000  C
  C478     1.0000 0.87420  0.10151  0.49279  Biso   1.000  C
  C479     1.0000 0.84958  0.20000  0.50660  Biso   1.000  C
  H447     1.0000 0.94859  0.22529  0.56671  Biso   1.000  H
  H448     1.0000 0.89802  0.23199  0.59769  Biso   1.000  H
  C480     1.0000 0.88161  0.24879  0.52900  Biso   1.000  C
  O93      1.0000 0.82180  0.12509  0.60422  Biso   1.000  O
  C481     1.0000 0.80749  0.17998  0.53812  Biso   1.000  C
  H449     1.0000 0.05002  0.37182  0.75400  Biso   1.000  H
  C482     1.0000 0.08482  0.35149  0.81659  Biso   1.000  C
  H450     1.0000 0.10499  0.32212  0.87851  Biso   1.000  H
  O94      1.0000 0.81974  0.46488  0.90843  Biso   1.000  O
  O95      1.0000 0.84011  0.37891  0.94254  Biso   1.000  O
  C483     1.0000 0.74090  0.41661  0.94668  Biso   1.000  C
  H451     1.0000 0.87111  0.56060  0.55240  Biso   1.000  H
  H452     1.0000 0.86730  0.50139  0.53631  Biso   1.000  H
  H453     1.0000 0.85692  0.51589  0.58739  Biso   1.000  H
  H454     1.0000 0.72509  0.49691  0.53472  Biso   1.000  H
  H455     1.0000 0.77491  0.46361  0.52050  Biso   1.000  H
  H456     1.0000 0.75569  0.51058  0.48980  Biso   1.000  H
  H457     1.0000 0.79421  0.59778  0.49929  Biso   1.000  H
  H458     1.0000 0.77832  0.65299  0.57429  Biso   1.000  H
  H459     1.0000 0.83710  0.64411  0.55641  Biso   1.000  H
  H460     1.0000 0.70408  0.58589  0.52159  Biso   1.000  H
  H461     1.0000 0.72192  0.63841  0.54631  Biso   1.000  H
  H462     1.0000 0.96092  0.19861  0.49650  Biso   1.000  H
  H463     1.0000 0.93690  0.17321  0.45240  Biso   1.000  H
  H464     1.0000 0.96928  0.13821  0.48660  Biso   1.000  H
  H465     1.0000 0.90408  0.07880  0.48739  Biso   1.000  H
  H466     1.0000 0.85521  0.10650  0.46491  Biso   1.000  H
  H467     1.0000 0.85129  0.08541  0.51489  Biso   1.000  H
  H468     1.0000 0.83722  0.20682  0.47548  Biso   1.000  H
  H469     1.0000 0.90650  0.26441  0.50768  Biso   1.000  H
  H470     1.0000 0.85779  0.27598  0.54029  Biso   1.000  H
  H471     1.0000 0.78688  0.20912  0.55060  Biso   1.000  H
  H472     1.0000 0.78379  0.15581  0.52251  Biso   1.000  H
  H473     1.0000 0.11562  0.37119  0.81272  Biso   1.000  H
  H474     1.0000 0.74621  0.43670  0.97440  Biso   1.000  H
  H475     1.0000 0.71760  0.43730  0.92741  Biso   1.000  H
  C484     1.0000 0.71141  0.36591  0.95940  Biso   1.000  C
  C485     1.0000 0.67388  0.37119  0.99969  Biso   1.000  C
  C486     1.0000 0.67051  0.34820  0.92231  Biso   1.000  C
  C487     1.0000 0.74352  0.31518  0.97011  Biso   1.000  C
  C488     1.0000 0.63080  0.41391  0.99300  Biso   1.000  C
  C489     1.0000 0.65252  0.31340  0.99470  Biso   1.000  C
  C490     1.0000 0.70159  0.38201  0.04590  Biso   1.000  C
  O96      1.0000 0.66920  0.36092  0.88341  Biso   1.000  O
  C491     1.0000 0.62961  0.31201  0.94801  Biso   1.000  C
  H476     1.0000 0.77471  0.32311  0.98810  Biso   1.000  H
  H477     1.0000 0.75398  0.29691  0.94250  Biso   1.000  H
  C492     1.0000 0.70178  0.28220  0.99799  Biso   1.000  C
  H478     1.0000 0.64538  0.44820  0.99929  Biso   1.000  H
  H479     1.0000 0.61831  0.41288  0.96209  Biso   1.000  H
  H480     1.0000 0.60178  0.40709  0.01329  Biso   1.000  H
  H481     1.0000 0.62660  0.30408  0.01819  Biso   1.000  H
  H482     1.0000 0.72850  0.35581  0.05100  Biso   1.000  H
  H483     1.0000 0.67590  0.38038  0.06991  Biso   1.000  H
  H484     1.0000 0.71752  0.41661  0.04529  Biso   1.000  H
  H485     1.0000 0.59409  0.32671  0.94719  Biso   1.000  H
  H486     1.0000 0.62909  0.27630  0.93570  Biso   1.000  H
  H487     1.0000 0.69719  0.24721  0.98490  Biso   1.000  H
  H488     1.0000 0.71288  0.27840  0.02941  Biso   1.000  H
