data_image0
_cell_length_a       51.168
_cell_length_b       10.014
_cell_length_c       25.099
_cell_angle_alpha    90
_cell_angle_beta     90
_cell_angle_gamma    90

_symmetry_space_group_name_H-M    "P 1"
_symmetry_int_tables_number       1

loop_
  _symmetry_equiv_pos_as_xyz
  'x, y, z'

loop_
  _atom_site_label
  _atom_site_occupancy
  _atom_site_fract_x
  _atom_site_fract_y
  _atom_site_fract_z
  _atom_site_thermal_displace_type
  _atom_site_B_iso_or_equiv
  _atom_site_type_symbol
  C1       1.0000 0.37107  0.54873  0.43189  Biso   1.000  C
  C2       1.0000 0.34979  0.62772  0.40332  Biso   1.000  C
  C3       1.0000 0.38112  0.43589  0.39763  Biso   1.000  C
  H1       1.0000 0.36400  0.51188  0.46552  Biso   1.000  H
  H2       1.0000 0.38569  0.60925  0.44101  Biso   1.000  H
  C4       1.0000 0.32290  0.60915  0.41205  Biso   1.000  C
  C5       1.0000 0.35768  0.72319  0.36603  Biso   1.000  C
  C6       1.0000 0.37041  0.30707  0.39755  Biso   1.000  C
  C7       1.0000 0.40115  0.46425  0.36157  Biso   1.000  C
  C8       1.0000 0.31180  0.49970  0.44723  Biso   1.000  C
  C9       1.0000 0.30533  0.69113  0.38496  Biso   1.000  C
  H3       1.0000 0.37580  0.73727  0.36009  Biso   1.000  H
  C10      1.0000 0.33972  0.79778  0.33746  Biso   1.000  C
  C11      1.0000 0.34977  0.26113  0.43747  Biso   1.000  C
  C12      1.0000 0.37889  0.21620  0.35922  Biso   1.000  C
  C13      1.0000 0.40947  0.37458  0.32352  Biso   1.000  C
  H4       1.0000 0.40940  0.54913  0.36340  Biso   1.000  H
  C14      1.0000 0.30554  0.37278  0.41639  Biso   1.000  C
  H5       1.0000 0.32460  0.47863  0.47560  Biso   1.000  H
  H6       1.0000 0.29559  0.53275  0.46448  Biso   1.000  H
  C15      1.0000 0.31324  0.78400  0.34774  Biso   1.000  C
  H7       1.0000 0.28719  0.68274  0.39241  Biso   1.000  H
  O1       1.0000 0.35049  0.88346  0.29997  Biso   1.000  O
  C16      1.0000 0.32225  0.26243  0.41428  Biso   1.000  C
  H8       1.0000 0.35030  0.32025  0.46910  Biso   1.000  H
  H9       1.0000 0.35399  0.16936  0.44938  Biso   1.000  H
  H10      1.0000 0.37170  0.12872  0.35890  Biso   1.000  H
  C17      1.0000 0.39755  0.25085  0.32145  Biso   1.000  C
  H11      1.0000 0.42310  0.39734  0.29929  Biso   1.000  H
  C18      1.0000 0.28184  0.36858  0.38874  Biso   1.000  C
  H12      1.0000 0.30079  0.83763  0.32950  Biso   1.000  H
  C19      1.0000 0.33345  0.95996  0.26770  Biso   1.000  C
  C20      1.0000 0.31369  0.14859  0.38755  Biso   1.000  C
  O2       1.0000 0.40283  0.15319  0.28384  Biso   1.000  O
  C21      1.0000 0.27482  0.25724  0.35894  Biso   1.000  C
  H13      1.0000 0.27040  0.44298  0.39041  Biso   1.000  H
  O3       1.0000 0.31655  0.88276  0.23563  Biso   1.000  O
  H14      1.0000 0.34400  0.01837  0.24431  Biso   1.000  H
  H15      1.0000 0.32280  0.01837  0.29101  Biso   1.000  H
  C22      1.0000 0.29018  0.14420  0.36025  Biso   1.000  C
  H16      1.0000 0.32440  0.07110  0.38798  Biso   1.000  H
  C23      1.0000 0.42255  0.17855  0.24591  Biso   1.000  C
  O4       1.0000 0.25195  0.26982  0.32934  Biso   1.000  O
  C24      1.0000 0.32733  0.79688  0.19814  Biso   1.000  C
  H17      1.0000 0.28481  0.06481  0.34280  Biso   1.000  H
  O5       1.0000 0.41563  0.28111  0.20945  Biso   1.000  O
  H18      1.0000 0.43881  0.20431  0.26471  Biso   1.000  H
  H19      1.0000 0.42611  0.09537  0.22579  Biso   1.000  H
  C25      1.0000 0.24621  0.16687  0.29208  Biso   1.000  C
  C26      1.0000 0.30943  0.71999  0.17025  Biso   1.000  C
  C27      1.0000 0.35374  0.78540  0.18742  Biso   1.000  C
  C28      1.0000 0.39327  0.26373  0.17897  Biso   1.000  C
  O6       1.0000 0.26642  0.14510  0.25511  Biso   1.000  O
  H20      1.0000 0.23001  0.19073  0.27260  Biso   1.000  H
  H21      1.0000 0.24281  0.08288  0.31169  Biso   1.000  H
  C29      1.0000 0.31737  0.62493  0.13335  Biso   1.000  C
  H22      1.0000 0.29130  0.73277  0.17658  Biso   1.000  H
  C30      1.0000 0.36167  0.69243  0.15021  Biso   1.000  C
  H23      1.0000 0.36611  0.84032  0.20519  Biso   1.000  H
  C31      1.0000 0.38591  0.37258  0.14833  Biso   1.000  C
  C32      1.0000 0.37848  0.14829  0.17794  Biso   1.000  C
  C33      1.0000 0.27150  0.24326  0.21738  Biso   1.000  C
  C34      1.0000 0.29628  0.54274  0.10578  Biso   1.000  C
  C35      1.0000 0.34434  0.60815  0.12395  Biso   1.000  C
  H24      1.0000 0.37981  0.68564  0.14220  Biso   1.000  H
  C36      1.0000 0.36237  0.37328  0.12004  Biso   1.000  C
  H25      1.0000 0.39710  0.44817  0.14650  Biso   1.000  H
  C37      1.0000 0.35524  0.14919  0.14961  Biso   1.000  C
  H26      1.0000 0.38411  0.07030  0.19618  Biso   1.000  H
  C38      1.0000 0.25934  0.36579  0.21579  Biso   1.000  C
  C39      1.0000 0.29006  0.20931  0.17929  Biso   1.000  C
  C40      1.0000 0.28702  0.42890  0.14084  Biso   1.000  C
  H27      1.0000 0.30330  0.50609  0.07211  Biso   1.000  H
  H28      1.0000 0.28131  0.60116  0.09702  Biso   1.000  H
  C41      1.0000 0.35542  0.49850  0.08897  Biso   1.000  C
  C42      1.0000 0.34611  0.26103  0.12255  Biso   1.000  C
  H29      1.0000 0.34510  0.06990  0.14869  Biso   1.000  H
  C43      1.0000 0.26722  0.45616  0.17734  Biso   1.000  C
  H30      1.0000 0.24590  0.38786  0.24041  Biso   1.000  H
  C44      1.0000 0.29806  0.30088  0.14068  Biso   1.000  C
  H31      1.0000 0.29749  0.12233  0.17961  Biso   1.000  H
  H32      1.0000 0.34240  0.47553  0.06120  Biso   1.000  H
  H33      1.0000 0.37131  0.53235  0.07080  Biso   1.000  H
  C45      1.0000 0.31850  0.25624  0.10008  Biso   1.000  C
  H34      1.0000 0.25879  0.54044  0.17570  Biso   1.000  H
  H35      1.0000 0.31750  0.31476  0.06829  Biso   1.000  H
  H36      1.0000 0.31449  0.16387  0.08861  Biso   1.000  H
  C46      1.0000 0.35542  0.50150  0.58899  Biso   1.000  C
  C47      1.0000 0.34434  0.39195  0.62393  Biso   1.000  C
  H37      1.0000 0.34240  0.52457  0.56122  Biso   1.000  H
  H38      1.0000 0.37131  0.46775  0.57082  Biso   1.000  H
  C48      1.0000 0.36237  0.62672  0.62002  Biso   1.000  C
  C49      1.0000 0.31737  0.37507  0.63337  Biso   1.000  C
  C50      1.0000 0.36167  0.30757  0.65023  Biso   1.000  C
  C51      1.0000 0.34611  0.73907  0.62253  Biso   1.000  C
  C52      1.0000 0.38591  0.62742  0.64831  Biso   1.000  C
  C53      1.0000 0.29628  0.45736  0.60576  Biso   1.000  C
  C54      1.0000 0.30943  0.28001  0.67027  Biso   1.000  C
  C55      1.0000 0.35374  0.21460  0.68740  Biso   1.000  C
  H39      1.0000 0.37981  0.31446  0.64222  Biso   1.000  H
  C56      1.0000 0.31850  0.74386  0.60006  Biso   1.000  C
  C57      1.0000 0.35524  0.85081  0.64963  Biso   1.000  C
  C58      1.0000 0.39327  0.73637  0.67899  Biso   1.000  C
  H40      1.0000 0.39710  0.55183  0.64652  Biso   1.000  H
  C59      1.0000 0.28702  0.57110  0.64086  Biso   1.000  C
  H41      1.0000 0.30330  0.49391  0.57209  Biso   1.000  H
  H42      1.0000 0.28131  0.39894  0.59700  Biso   1.000  H
  H43      1.0000 0.29130  0.26733  0.67660  Biso   1.000  H
  C60      1.0000 0.32733  0.20312  0.69816  Biso   1.000  C
  H44      1.0000 0.36611  0.15968  0.70521  Biso   1.000  H
  C61      1.0000 0.29806  0.69912  0.64070  Biso   1.000  C
  H45      1.0000 0.31750  0.68534  0.56831  Biso   1.000  H
  H46      1.0000 0.31449  0.83613  0.58859  Biso   1.000  H
  H47      1.0000 0.34510  0.93010  0.64871  Biso   1.000  H
  C62      1.0000 0.37848  0.85171  0.67792  Biso   1.000  C
  O7       1.0000 0.41563  0.71889  0.70947  Biso   1.000  O
  C63      1.0000 0.26722  0.54394  0.67736  Biso   1.000  C
  O8       1.0000 0.31655  0.11724  0.73565  Biso   1.000  O
  C64      1.0000 0.29006  0.79069  0.67927  Biso   1.000  C
  H48      1.0000 0.38411  0.92970  0.69620  Biso   1.000  H
  C65      1.0000 0.42255  0.82155  0.74593  Biso   1.000  C
  H49      1.0000 0.25879  0.45966  0.67568  Biso   1.000  H
  C66      1.0000 0.25934  0.63421  0.71581  Biso   1.000  C
  C67      1.0000 0.33345  0.04014  0.76768  Biso   1.000  C
  C68      1.0000 0.27150  0.75684  0.71740  Biso   1.000  C
  H50      1.0000 0.29749  0.87777  0.67959  Biso   1.000  H
  O9       1.0000 0.40283  0.84681  0.78386  Biso   1.000  O
  H51      1.0000 0.43881  0.79569  0.76469  Biso   1.000  H
  H52      1.0000 0.42611  0.90463  0.72581  Biso   1.000  H
  H53      1.0000 0.24590  0.61224  0.74039  Biso   1.000  H
  O10      1.0000 0.35049  0.11664  0.79995  Biso   1.000  O
  H54      1.0000 0.34400  0.98173  0.74429  Biso   1.000  H
  H55      1.0000 0.32280  0.98173  0.79099  Biso   1.000  H
  O11      1.0000 0.26642  0.85490  0.75509  Biso   1.000  O
  C69      1.0000 0.39755  0.74925  0.82147  Biso   1.000  C
  C70      1.0000 0.33972  0.20222  0.83748  Biso   1.000  C
  C71      1.0000 0.24621  0.83313  0.79206  Biso   1.000  C
  C72      1.0000 0.37889  0.78380  0.85920  Biso   1.000  C
  C73      1.0000 0.40947  0.62542  0.82350  Biso   1.000  C
  C74      1.0000 0.35768  0.27681  0.86601  Biso   1.000  C
  C75      1.0000 0.31324  0.21600  0.84776  Biso   1.000  C
  O12      1.0000 0.25195  0.73018  0.82936  Biso   1.000  O
  H56      1.0000 0.23001  0.80937  0.77258  Biso   1.000  H
  H57      1.0000 0.24281  0.91712  0.81171  Biso   1.000  H
  C76      1.0000 0.37041  0.69293  0.89757  Biso   1.000  C
  H58      1.0000 0.37170  0.87138  0.85892  Biso   1.000  H
  H59      1.0000 0.42310  0.60276  0.79931  Biso   1.000  H
  C77      1.0000 0.40115  0.53585  0.86159  Biso   1.000  C
  C78      1.0000 0.34979  0.37228  0.90334  Biso   1.000  C
  H60      1.0000 0.37580  0.26283  0.86011  Biso   1.000  H
  H61      1.0000 0.30079  0.16237  0.82952  Biso   1.000  H
  C79      1.0000 0.30533  0.30887  0.88498  Biso   1.000  C
  C80      1.0000 0.27482  0.74286  0.85896  Biso   1.000  C
  C81      1.0000 0.38112  0.56411  0.89765  Biso   1.000  C
  C82      1.0000 0.34977  0.73897  0.93745  Biso   1.000  C
  H62      1.0000 0.40940  0.45087  0.86338  Biso   1.000  H
  C83      1.0000 0.32290  0.39095  0.91207  Biso   1.000  C
  C84      1.0000 0.37107  0.45127  0.93191  Biso   1.000  C
  H63      1.0000 0.28719  0.31736  0.89239  Biso   1.000  H
  C85      1.0000 0.28184  0.63142  0.88876  Biso   1.000  C
  C86      1.0000 0.29018  0.85580  0.86023  Biso   1.000  C
  C87      1.0000 0.32225  0.73767  0.91426  Biso   1.000  C
  H64      1.0000 0.35030  0.67985  0.96908  Biso   1.000  H
  H65      1.0000 0.35399  0.83064  0.94940  Biso   1.000  H
  C88      1.0000 0.31180  0.50030  0.94721  Biso   1.000  C
  H66      1.0000 0.36400  0.48812  0.96550  Biso   1.000  H
  H67      1.0000 0.38569  0.39085  0.94099  Biso   1.000  H
  C89      1.0000 0.30554  0.62722  0.91641  Biso   1.000  C
  H68      1.0000 0.27040  0.55702  0.89039  Biso   1.000  H
  H69      1.0000 0.28481  0.93519  0.84278  Biso   1.000  H
  C90      1.0000 0.31369  0.85141  0.88753  Biso   1.000  C
  H70      1.0000 0.32460  0.52147  0.97562  Biso   1.000  H
  H71      1.0000 0.29559  0.46735  0.96450  Biso   1.000  H
  H72      1.0000 0.32440  0.92890  0.88800  Biso   1.000  H
  C91      1.0000 0.47305  0.34801  0.63489  Biso   1.000  C
  C92      1.0000 0.48050  0.23477  0.60664  Biso   1.000  C
  C93      1.0000 0.45155  0.35091  0.66839  Biso   1.000  C
  H73      1.0000 0.48319  0.42690  0.63098  Biso   1.000  H
  C94      1.0000 0.46418  0.12213  0.60895  Biso   1.000  C
  C95      1.0000 0.50649  0.23787  0.57763  Biso   1.000  C
  C96      1.0000 0.43697  0.23567  0.67393  Biso   1.000  C
  H74      1.0000 0.44700  0.43010  0.68700  Biso   1.000  H
  C97      1.0000 0.44252  0.12502  0.64285  Biso   1.000  C
  C98      1.0000 0.46895  0.99650  0.57660  Biso   1.000  C
  C99      1.0000 0.52914  0.19323  0.61309  Biso   1.000  C
  H75      1.0000 0.50991  0.32984  0.56488  Biso   1.000  H
  H76      1.0000 0.50549  0.17865  0.54612  Biso   1.000  H
  O13      1.0000 0.41626  0.22049  0.70919  Biso   1.000  O
  H77      1.0000 0.43140  0.04933  0.64461  Biso   1.000  H
  H78      1.0000 0.48010  0.01877  0.54560  Biso   1.000  H
  C100     1.0000 0.48198  0.88666  0.60863  Biso   1.000  C
  H79      1.0000 0.45200  0.96315  0.56281  Biso   1.000  H
  C101     1.0000 0.53985  0.06461  0.61126  Biso   1.000  C
  C102     1.0000 0.53920  0.28510  0.64951  Biso   1.000  C
  C103     1.0000 0.41172  0.32425  0.74672  Biso   1.000  C
  C104     1.0000 0.50917  0.86888  0.61162  Biso   1.000  C
  C105     1.0000 0.46599  0.80308  0.63879  Biso   1.000  C
  C106     1.0000 0.52849  0.95037  0.57899  Biso   1.000  C
  C107     1.0000 0.56146  0.03695  0.64341  Biso   1.000  C
  H80      1.0000 0.53199  0.37248  0.65110  Biso   1.000  H
  C108     1.0000 0.55965  0.25065  0.68361  Biso   1.000  C
  O14      1.0000 0.43336  0.34841  0.78007  Biso   1.000  O
  H81      1.0000 0.40740  0.40743  0.72732  Biso   1.000  H
  H82      1.0000 0.39650  0.30018  0.76899  Biso   1.000  H
  C109     1.0000 0.51904  0.77372  0.64692  Biso   1.000  C
  C110     1.0000 0.47594  0.71001  0.67417  Biso   1.000  C
  H83      1.0000 0.44760  0.81027  0.63489  Biso   1.000  H
  H84      1.0000 0.54280  0.89165  0.56672  Biso   1.000  H
  H85      1.0000 0.51960  0.98672  0.54719  Biso   1.000  H
  C111     1.0000 0.57147  0.12712  0.67959  Biso   1.000  C
  H86      1.0000 0.56959  0.95207  0.64030  Biso   1.000  H
  O15      1.0000 0.56664  0.34841  0.71991  Biso   1.000  O
  C112     1.0000 0.44035  0.25065  0.81637  Biso   1.000  C
  H87      1.0000 0.53741  0.76064  0.64899  Biso   1.000  H
  C113     1.0000 0.50274  0.69802  0.67895  Biso   1.000  C
  H88      1.0000 0.46461  0.65538  0.69469  Biso   1.000  H
  H89      1.0000 0.58611  0.10495  0.70110  Biso   1.000  H
  C114     1.0000 0.58828  0.32425  0.75330  Biso   1.000  C
  C115     1.0000 0.46080  0.28510  0.85051  Biso   1.000  C
  C116     1.0000 0.42853  0.12712  0.82043  Biso   1.000  C
  O16      1.0000 0.51530  0.61344  0.71445  Biso   1.000  O
  O17      1.0000 0.58374  0.22049  0.79079  Biso   1.000  O
  H90      1.0000 0.59260  0.40743  0.77270  Biso   1.000  H
  H91      1.0000 0.60350  0.30018  0.73099  Biso   1.000  H
  C117     1.0000 0.47086  0.19323  0.88693  Biso   1.000  C
  H92      1.0000 0.46801  0.37248  0.84892  Biso   1.000  H
  H93      1.0000 0.41389  0.10495  0.79892  Biso   1.000  H
  C118     1.0000 0.43854  0.03695  0.85657  Biso   1.000  C
  C119     1.0000 0.50000  0.53685  0.74999  Biso   1.000  C
  C120     1.0000 0.56303  0.23567  0.82605  Biso   1.000  C
  C121     1.0000 0.46015  0.06461  0.88876  Biso   1.000  C
  C122     1.0000 0.49351  0.23787  0.92235  Biso   1.000  C
  H94      1.0000 0.43041  0.95207  0.85972  Biso   1.000  H
  O18      1.0000 0.48470  0.61344  0.78553  Biso   1.000  O
  H95      1.0000 0.48829  0.47843  0.72899  Biso   1.000  H
  H96      1.0000 0.51171  0.47843  0.77099  Biso   1.000  H
  C123     1.0000 0.55748  0.12502  0.85713  Biso   1.000  C
  C124     1.0000 0.54845  0.35091  0.83163  Biso   1.000  C
  C125     1.0000 0.47151  0.95037  0.92099  Biso   1.000  C
  H97      1.0000 0.49009  0.32984  0.93510  Biso   1.000  H
  H98      1.0000 0.49451  0.17865  0.95390  Biso   1.000  H
  C126     1.0000 0.51950  0.23477  0.89334  Biso   1.000  C
  C127     1.0000 0.49726  0.69802  0.82103  Biso   1.000  C
  C128     1.0000 0.53582  0.12213  0.89103  Biso   1.000  C
  H99      1.0000 0.56860  0.04933  0.85541  Biso   1.000  H
  C129     1.0000 0.52695  0.34801  0.86509  Biso   1.000  C
  H100     1.0000 0.55300  0.43010  0.81298  Biso   1.000  H
  C130     1.0000 0.49083  0.86888  0.88840  Biso   1.000  C
  H101     1.0000 0.45720  0.89165  0.93330  Biso   1.000  H
  H102     1.0000 0.48040  0.98672  0.95279  Biso   1.000  H
  C131     1.0000 0.48096  0.77372  0.85310  Biso   1.000  C
  C132     1.0000 0.52406  0.71001  0.82585  Biso   1.000  C
  C133     1.0000 0.53105  0.99650  0.92338  Biso   1.000  C
  H103     1.0000 0.51681  0.42690  0.86900  Biso   1.000  H
  C134     1.0000 0.51802  0.88666  0.89139  Biso   1.000  C
  H104     1.0000 0.46259  0.76064  0.85099  Biso   1.000  H
  H105     1.0000 0.53539  0.65538  0.80529  Biso   1.000  H
  C135     1.0000 0.53401  0.80308  0.86119  Biso   1.000  C
  H106     1.0000 0.51990  0.01877  0.95438  Biso   1.000  H
  H107     1.0000 0.54800  0.96315  0.93721  Biso   1.000  H
  H108     1.0000 0.55240  0.81027  0.86509  Biso   1.000  H
  C136     1.0000 0.46080  0.71490  0.35049  Biso   1.000  C
  C137     1.0000 0.44035  0.74945  0.31639  Biso   1.000  C
  C138     1.0000 0.47086  0.80687  0.38691  Biso   1.000  C
  H109     1.0000 0.46801  0.62752  0.34890  Biso   1.000  H
  O19      1.0000 0.43336  0.65159  0.28009  Biso   1.000  O
  C139     1.0000 0.42853  0.87298  0.32041  Biso   1.000  C
  C140     1.0000 0.46015  0.93539  0.38874  Biso   1.000  C
  C141     1.0000 0.49351  0.76213  0.42237  Biso   1.000  C
  C142     1.0000 0.41172  0.67585  0.24670  Biso   1.000  C
  H110     1.0000 0.41389  0.89515  0.29890  Biso   1.000  H
  C143     1.0000 0.43854  0.96315  0.35659  Biso   1.000  C
  C144     1.0000 0.47151  0.04963  0.42101  Biso   1.000  C
  H111     1.0000 0.49009  0.67026  0.43512  Biso   1.000  H
  H112     1.0000 0.49451  0.82145  0.45388  Biso   1.000  H
  C145     1.0000 0.51950  0.76523  0.39336  Biso   1.000  C
  O20      1.0000 0.41626  0.77951  0.20921  Biso   1.000  O
  H113     1.0000 0.40740  0.59267  0.22730  Biso   1.000  H
  H114     1.0000 0.39650  0.69982  0.26901  Biso   1.000  H
  H115     1.0000 0.43041  0.04793  0.35970  Biso   1.000  H
  C146     1.0000 0.49083  0.13112  0.38838  Biso   1.000  C
  H116     1.0000 0.45720  0.10835  0.43328  Biso   1.000  H
  H117     1.0000 0.48040  0.01338  0.45281  Biso   1.000  H
  C147     1.0000 0.53582  0.87797  0.39105  Biso   1.000  C
  C148     1.0000 0.52695  0.65199  0.36511  Biso   1.000  C
  C149     1.0000 0.43697  0.76433  0.17395  Biso   1.000  C
  C150     1.0000 0.51802  0.11334  0.39137  Biso   1.000  C
  C151     1.0000 0.48096  0.22638  0.35308  Biso   1.000  C
  C152     1.0000 0.55748  0.87507  0.35715  Biso   1.000  C
  C153     1.0000 0.53105  0.00350  0.42340  Biso   1.000  C
  C154     1.0000 0.54845  0.64909  0.33161  Biso   1.000  C
  H118     1.0000 0.51681  0.57310  0.36902  Biso   1.000  H
  C155     1.0000 0.44252  0.87507  0.14287  Biso   1.000  C
  C156     1.0000 0.45155  0.64909  0.16837  Biso   1.000  C
  C157     1.0000 0.53401  0.19692  0.36121  Biso   1.000  C
  H119     1.0000 0.46259  0.23946  0.35101  Biso   1.000  H
  C158     1.0000 0.49726  0.30208  0.32105  Biso   1.000  C
  H120     1.0000 0.56860  0.95077  0.35539  Biso   1.000  H
  C159     1.0000 0.56303  0.76433  0.32607  Biso   1.000  C
  H121     1.0000 0.51990  0.98123  0.45440  Biso   1.000  H
  H122     1.0000 0.54800  0.03685  0.43719  Biso   1.000  H
  H123     1.0000 0.55300  0.56990  0.31300  Biso   1.000  H
  C160     1.0000 0.46418  0.87797  0.10897  Biso   1.000  C
  H124     1.0000 0.43140  0.95077  0.14459  Biso   1.000  H
  H125     1.0000 0.44700  0.56990  0.18702  Biso   1.000  H
  C161     1.0000 0.47305  0.65199  0.13491  Biso   1.000  C
  C162     1.0000 0.52406  0.29009  0.32583  Biso   1.000  C
  H126     1.0000 0.55240  0.18973  0.36511  Biso   1.000  H
  O21      1.0000 0.48470  0.38656  0.28555  Biso   1.000  O
  O22      1.0000 0.58374  0.77951  0.29081  Biso   1.000  O
  C163     1.0000 0.48050  0.76523  0.10666  Biso   1.000  C
  C164     1.0000 0.46895  0.00350  0.07662  Biso   1.000  C
  H127     1.0000 0.48319  0.57310  0.13100  Biso   1.000  H
  H128     1.0000 0.53539  0.34462  0.30531  Biso   1.000  H
  C165     1.0000 0.50000  0.46315  0.25001  Biso   1.000  C
  C166     1.0000 0.58828  0.67585  0.25328  Biso   1.000  C
  C167     1.0000 0.50649  0.76213  0.07765  Biso   1.000  C
  H129     1.0000 0.48010  0.98123  0.04562  Biso   1.000  H
  C168     1.0000 0.48198  0.11334  0.10861  Biso   1.000  C
  H130     1.0000 0.45200  0.03685  0.06279  Biso   1.000  H
  O23      1.0000 0.51530  0.38656  0.21447  Biso   1.000  O
  H131     1.0000 0.51171  0.52157  0.27101  Biso   1.000  H
  H132     1.0000 0.48829  0.52157  0.22901  Biso   1.000  H
  O24      1.0000 0.56664  0.65159  0.21993  Biso   1.000  O
  H133     1.0000 0.59260  0.59267  0.27268  Biso   1.000  H
  H134     1.0000 0.60350  0.69982  0.23101  Biso   1.000  H
  C169     1.0000 0.52914  0.80687  0.11307  Biso   1.000  C
  H135     1.0000 0.50991  0.67026  0.06490  Biso   1.000  H
  H136     1.0000 0.50549  0.82145  0.04610  Biso   1.000  H
  C170     1.0000 0.50917  0.13112  0.11160  Biso   1.000  C
  C171     1.0000 0.46599  0.19692  0.13881  Biso   1.000  C
  C172     1.0000 0.50274  0.30208  0.17897  Biso   1.000  C
  C173     1.0000 0.55965  0.74945  0.18363  Biso   1.000  C
  C174     1.0000 0.53985  0.93539  0.11124  Biso   1.000  C
  C175     1.0000 0.53920  0.71490  0.14949  Biso   1.000  C
  C176     1.0000 0.51904  0.22638  0.14690  Biso   1.000  C
  C177     1.0000 0.52849  0.04963  0.07901  Biso   1.000  C
  C178     1.0000 0.47594  0.29009  0.17415  Biso   1.000  C
  H137     1.0000 0.44760  0.18973  0.13491  Biso   1.000  H
  C179     1.0000 0.57147  0.87298  0.17957  Biso   1.000  C
  C180     1.0000 0.56146  0.96315  0.14343  Biso   1.000  C
  H138     1.0000 0.53199  0.62752  0.15108  Biso   1.000  H
  H139     1.0000 0.53741  0.23946  0.14901  Biso   1.000  H
  H140     1.0000 0.54280  0.10835  0.06670  Biso   1.000  H
  H141     1.0000 0.51960  0.01338  0.04721  Biso   1.000  H
  H142     1.0000 0.46461  0.34462  0.19471  Biso   1.000  H
  H143     1.0000 0.58611  0.89515  0.20108  Biso   1.000  H
  H144     1.0000 0.56959  0.04793  0.14028  Biso   1.000  H
  C181     1.0000 0.59885  0.53585  0.63843  Biso   1.000  C
  C182     1.0000 0.61888  0.56411  0.60237  Biso   1.000  C
  C183     1.0000 0.59053  0.62542  0.67648  Biso   1.000  C
  H145     1.0000 0.59060  0.45087  0.63660  Biso   1.000  H
  C184     1.0000 0.62959  0.69293  0.60245  Biso   1.000  C
  C185     1.0000 0.62893  0.45127  0.56811  Biso   1.000  C
  C186     1.0000 0.60245  0.74925  0.67855  Biso   1.000  C
  H146     1.0000 0.57690  0.60276  0.70071  Biso   1.000  H
  C187     1.0000 0.62111  0.78380  0.64078  Biso   1.000  C
  C188     1.0000 0.65023  0.73897  0.56253  Biso   1.000  C
  C189     1.0000 0.65021  0.37228  0.59668  Biso   1.000  C
  H147     1.0000 0.63600  0.48812  0.53448  Biso   1.000  H
  H148     1.0000 0.61431  0.39085  0.55899  Biso   1.000  H
  O25      1.0000 0.59717  0.84681  0.71616  Biso   1.000  O
  H149     1.0000 0.62830  0.87138  0.64110  Biso   1.000  H
  H150     1.0000 0.64970  0.67985  0.53090  Biso   1.000  H
  H151     1.0000 0.64601  0.83064  0.55062  Biso   1.000  H
  C190     1.0000 0.67775  0.73767  0.58572  Biso   1.000  C
  C191     1.0000 0.67710  0.39095  0.58795  Biso   1.000  C
  C192     1.0000 0.64232  0.27681  0.63397  Biso   1.000  C
  C193     1.0000 0.57745  0.82155  0.75409  Biso   1.000  C
  C194     1.0000 0.69446  0.62722  0.58361  Biso   1.000  C
  C195     1.0000 0.68631  0.85141  0.61245  Biso   1.000  C
  C196     1.0000 0.68820  0.50030  0.55277  Biso   1.000  C
  C197     1.0000 0.69467  0.30887  0.61504  Biso   1.000  C
  H152     1.0000 0.62420  0.26283  0.63991  Biso   1.000  H
  C198     1.0000 0.66028  0.20222  0.66254  Biso   1.000  C
  O26      1.0000 0.58437  0.71889  0.79055  Biso   1.000  O
  H153     1.0000 0.56119  0.79569  0.73529  Biso   1.000  H
  H154     1.0000 0.57389  0.90463  0.77421  Biso   1.000  H
  C199     1.0000 0.71816  0.63142  0.61126  Biso   1.000  C
  C200     1.0000 0.70982  0.85580  0.63975  Biso   1.000  C
  H155     1.0000 0.67560  0.92890  0.61202  Biso   1.000  H
  H156     1.0000 0.67540  0.52147  0.52440  Biso   1.000  H
  H157     1.0000 0.70441  0.46735  0.53552  Biso   1.000  H
  C201     1.0000 0.68676  0.21600  0.65226  Biso   1.000  C
  H158     1.0000 0.71281  0.31736  0.60759  Biso   1.000  H
  O27      1.0000 0.64951  0.11664  0.70003  Biso   1.000  O
  C202     1.0000 0.60673  0.73637  0.82103  Biso   1.000  C
  H159     1.0000 0.72960  0.55702  0.60959  Biso   1.000  H
  C203     1.0000 0.72518  0.74286  0.64106  Biso   1.000  C
  H160     1.0000 0.71519  0.93519  0.65720  Biso   1.000  H
  H161     1.0000 0.69921  0.16237  0.67050  Biso   1.000  H
  C204     1.0000 0.66655  0.04014  0.73230  Biso   1.000  C
  C205     1.0000 0.62152  0.85171  0.82206  Biso   1.000  C
  C206     1.0000 0.61409  0.62742  0.85167  Biso   1.000  C
  O28      1.0000 0.74805  0.73018  0.67066  Biso   1.000  O
  O29      1.0000 0.68345  0.11724  0.76437  Biso   1.000  O
  H162     1.0000 0.65600  0.98173  0.75569  Biso   1.000  H
  H163     1.0000 0.67720  0.98173  0.70899  Biso   1.000  H
  C207     1.0000 0.64476  0.85081  0.85039  Biso   1.000  C
  H164     1.0000 0.61589  0.92970  0.80382  Biso   1.000  H
  C208     1.0000 0.63763  0.62672  0.87996  Biso   1.000  C
  H165     1.0000 0.60290  0.55183  0.85350  Biso   1.000  H
  C209     1.0000 0.75379  0.83313  0.70792  Biso   1.000  C
  C210     1.0000 0.67267  0.20312  0.80186  Biso   1.000  C
  C211     1.0000 0.65389  0.73907  0.87745  Biso   1.000  C
  H166     1.0000 0.65490  0.93010  0.85131  Biso   1.000  H
  C212     1.0000 0.64458  0.50150  0.91103  Biso   1.000  C
  O30      1.0000 0.73358  0.85490  0.74489  Biso   1.000  O
  H167     1.0000 0.76999  0.80937  0.72740  Biso   1.000  H
  H168     1.0000 0.75719  0.91712  0.68831  Biso   1.000  H
  C213     1.0000 0.69057  0.28001  0.82975  Biso   1.000  C
  C214     1.0000 0.64626  0.21460  0.81258  Biso   1.000  C
  C215     1.0000 0.68150  0.74386  0.89992  Biso   1.000  C
  C216     1.0000 0.65566  0.39195  0.87605  Biso   1.000  C
  H169     1.0000 0.65760  0.52457  0.93880  Biso   1.000  H
  H170     1.0000 0.62869  0.46775  0.92920  Biso   1.000  H
  C217     1.0000 0.72850  0.75684  0.78262  Biso   1.000  C
  C218     1.0000 0.68263  0.37507  0.86665  Biso   1.000  C
  H171     1.0000 0.70870  0.26733  0.82342  Biso   1.000  H
  H172     1.0000 0.63389  0.15968  0.79481  Biso   1.000  H
  C219     1.0000 0.63833  0.30757  0.84979  Biso   1.000  C
  H173     1.0000 0.68250  0.68534  0.93171  Biso   1.000  H
  H174     1.0000 0.68551  0.83613  0.91139  Biso   1.000  H
  C220     1.0000 0.70194  0.69912  0.85932  Biso   1.000  C
  C221     1.0000 0.74066  0.63421  0.78421  Biso   1.000  C
  C222     1.0000 0.70994  0.79069  0.82071  Biso   1.000  C
  C223     1.0000 0.70372  0.45736  0.89422  Biso   1.000  C
  H175     1.0000 0.62019  0.31446  0.85780  Biso   1.000  H
  C224     1.0000 0.71298  0.57110  0.85916  Biso   1.000  C
  C225     1.0000 0.73278  0.54394  0.82266  Biso   1.000  C
  H176     1.0000 0.75410  0.61224  0.75959  Biso   1.000  H
  H177     1.0000 0.70251  0.87777  0.82039  Biso   1.000  H
  H178     1.0000 0.69670  0.49391  0.92789  Biso   1.000  H
  H179     1.0000 0.71869  0.39894  0.90298  Biso   1.000  H
  H180     1.0000 0.74121  0.45966  0.82430  Biso   1.000  H
  C226     1.0000 0.25379  0.66697  0.29208  Biso   1.000  C
  O31      1.0000 0.23358  0.64510  0.25511  Biso   1.000  O
  O32      1.0000 0.24805  0.76992  0.32934  Biso   1.000  O
  H181     1.0000 0.26999  0.69073  0.27260  Biso   1.000  H
  H182     1.0000 0.25719  0.58288  0.31169  Biso   1.000  H
  C227     1.0000 0.22850  0.74326  0.21738  Biso   1.000  C
  C228     1.0000 0.22518  0.75724  0.35894  Biso   1.000  C
  C229     1.0000 0.24066  0.86579  0.21579  Biso   1.000  C
  C230     1.0000 0.20994  0.70931  0.17929  Biso   1.000  C
  C231     1.0000 0.21816  0.86868  0.38874  Biso   1.000  C
  C232     1.0000 0.20982  0.64420  0.36025  Biso   1.000  C
  C233     1.0000 0.23278  0.95616  0.17734  Biso   1.000  C
  H183     1.0000 0.25410  0.88786  0.24041  Biso   1.000  H
  C234     1.0000 0.20194  0.80098  0.14068  Biso   1.000  C
  H184     1.0000 0.20251  0.62233  0.17961  Biso   1.000  H
  C235     1.0000 0.19446  0.87288  0.41639  Biso   1.000  C
  H185     1.0000 0.22960  0.94308  0.39041  Biso   1.000  H
  H186     1.0000 0.21519  0.56481  0.34280  Biso   1.000  H
  C236     1.0000 0.18631  0.64859  0.38755  Biso   1.000  C
  C237     1.0000 0.21298  0.92890  0.14084  Biso   1.000  C
  H187     1.0000 0.24121  0.04044  0.17570  Biso   1.000  H
  C238     1.0000 0.18150  0.75624  0.10008  Biso   1.000  C
  C239     1.0000 0.17775  0.76243  0.41428  Biso   1.000  C
  C240     1.0000 0.18820  0.99970  0.44723  Biso   1.000  C
  H188     1.0000 0.17560  0.57110  0.38798  Biso   1.000  H
  C241     1.0000 0.20372  0.04274  0.10578  Biso   1.000  C
  C242     1.0000 0.15389  0.76103  0.12255  Biso   1.000  C
  H189     1.0000 0.18250  0.81476  0.06829  Biso   1.000  H
  H190     1.0000 0.18551  0.66397  0.08861  Biso   1.000  H
  C243     1.0000 0.15023  0.76113  0.43747  Biso   1.000  C
  H191     1.0000 0.17540  0.97863  0.47560  Biso   1.000  H
  H192     1.0000 0.20441  0.03275  0.46448  Biso   1.000  H
  C244     1.0000 0.17710  0.10915  0.41205  Biso   1.000  C
  C245     1.0000 0.18263  0.12493  0.13335  Biso   1.000  C
  H193     1.0000 0.19670  0.00609  0.07211  Biso   1.000  H
  H194     1.0000 0.21869  0.10116  0.09702  Biso   1.000  H
  C246     1.0000 0.13763  0.87338  0.12004  Biso   1.000  C
  C247     1.0000 0.14476  0.64919  0.14961  Biso   1.000  C
  C248     1.0000 0.12959  0.80717  0.39755  Biso   1.000  C
  H195     1.0000 0.14970  0.82025  0.46910  Biso   1.000  H
  H196     1.0000 0.14601  0.66946  0.44938  Biso   1.000  H
  C249     1.0000 0.15021  0.12772  0.40332  Biso   1.000  C
  C250     1.0000 0.19467  0.19113  0.38496  Biso   1.000  C
  C251     1.0000 0.15566  0.10815  0.12395  Biso   1.000  C
  C252     1.0000 0.19057  0.22009  0.17025  Biso   1.000  C
  C253     1.0000 0.14458  0.99850  0.08897  Biso   1.000  C
  C254     1.0000 0.11409  0.87268  0.14833  Biso   1.000  C
  H197     1.0000 0.15490  0.56990  0.14869  Biso   1.000  H
  C255     1.0000 0.12152  0.64829  0.17794  Biso   1.000  C
  C256     1.0000 0.11888  0.93589  0.39763  Biso   1.000  C
  C257     1.0000 0.12111  0.71620  0.35922  Biso   1.000  C
  C258     1.0000 0.14232  0.22329  0.36603  Biso   1.000  C
  C259     1.0000 0.12893  0.04873  0.43189  Biso   1.000  C
  C260     1.0000 0.18676  0.28400  0.34774  Biso   1.000  C
  H198     1.0000 0.21281  0.18274  0.39241  Biso   1.000  H
  C261     1.0000 0.13833  0.19243  0.15021  Biso   1.000  C
  H199     1.0000 0.20870  0.23277  0.17658  Biso   1.000  H
  C262     1.0000 0.17267  0.29698  0.19814  Biso   1.000  C
  H200     1.0000 0.15760  0.97553  0.06120  Biso   1.000  H
  H201     1.0000 0.12869  0.03235  0.07080  Biso   1.000  H
  C263     1.0000 0.10673  0.76373  0.17897  Biso   1.000  C
  H202     1.0000 0.10290  0.94827  0.14650  Biso   1.000  H
  H203     1.0000 0.11589  0.57030  0.19618  Biso   1.000  H
  C264     1.0000 0.09885  0.96425  0.36157  Biso   1.000  C
  H204     1.0000 0.12830  0.62872  0.35890  Biso   1.000  H
  C265     1.0000 0.10245  0.75085  0.32145  Biso   1.000  C
  H205     1.0000 0.12420  0.23727  0.36009  Biso   1.000  H
  C266     1.0000 0.16028  0.29788  0.33746  Biso   1.000  C
  H206     1.0000 0.13600  0.01198  0.46552  Biso   1.000  H
  H207     1.0000 0.11431  0.10925  0.44101  Biso   1.000  H
  H208     1.0000 0.19921  0.33763  0.32950  Biso   1.000  H
  C267     1.0000 0.14626  0.28550  0.18742  Biso   1.000  C
  H209     1.0000 0.12019  0.18564  0.14220  Biso   1.000  H
  O33      1.0000 0.18345  0.38286  0.23563  Biso   1.000  O
  O34      1.0000 0.08437  0.78111  0.20945  Biso   1.000  O
  C268     1.0000 0.09053  0.87468  0.32352  Biso   1.000  C
  H210     1.0000 0.09060  0.04913  0.36340  Biso   1.000  H
  O35      1.0000 0.09717  0.65329  0.28384  Biso   1.000  O
  O36      1.0000 0.14951  0.38346  0.29997  Biso   1.000  O
  H211     1.0000 0.13389  0.34032  0.20519  Biso   1.000  H
  C269     1.0000 0.16655  0.45996  0.26770  Biso   1.000  C
  C270     1.0000 0.07745  0.67855  0.24591  Biso   1.000  C
  H212     1.0000 0.07690  0.89734  0.29929  Biso   1.000  H
  H213     1.0000 0.15600  0.51837  0.24431  Biso   1.000  H
  H214     1.0000 0.17720  0.51837  0.29101  Biso   1.000  H
  H215     1.0000 0.06119  0.70431  0.26471  Biso   1.000  H
  H216     1.0000 0.07389  0.59547  0.22579  Biso   1.000  H
  O37      1.0000 0.58437  0.28111  0.29053  Biso   1.000  O
  C271     1.0000 0.57745  0.17855  0.25407  Biso   1.000  C
  C272     1.0000 0.60673  0.26373  0.32101  Biso   1.000  C
  O38      1.0000 0.59717  0.15319  0.21614  Biso   1.000  O
  H217     1.0000 0.56119  0.20431  0.23531  Biso   1.000  H
  H218     1.0000 0.57389  0.09537  0.27419  Biso   1.000  H
  C273     1.0000 0.62152  0.14829  0.32208  Biso   1.000  C
  C274     1.0000 0.61409  0.37258  0.35169  Biso   1.000  C
  C275     1.0000 0.60245  0.25085  0.17853  Biso   1.000  C
  C276     1.0000 0.64476  0.14919  0.35037  Biso   1.000  C
  H219     1.0000 0.61589  0.07030  0.30380  Biso   1.000  H
  C277     1.0000 0.63763  0.37328  0.37998  Biso   1.000  C
  H220     1.0000 0.60290  0.44817  0.35348  Biso   1.000  H
  C278     1.0000 0.62111  0.21620  0.14080  Biso   1.000  C
  C279     1.0000 0.59053  0.37458  0.17650  Biso   1.000  C
  C280     1.0000 0.65389  0.26103  0.37747  Biso   1.000  C
  H221     1.0000 0.65490  0.06990  0.35129  Biso   1.000  H
  C281     1.0000 0.64458  0.49850  0.41101  Biso   1.000  C
  C282     1.0000 0.62959  0.30707  0.10243  Biso   1.000  C
  H222     1.0000 0.62830  0.12872  0.14108  Biso   1.000  H
  H223     1.0000 0.57690  0.39734  0.20069  Biso   1.000  H
  C283     1.0000 0.59885  0.46425  0.13841  Biso   1.000  C
  C284     1.0000 0.68150  0.25624  0.39994  Biso   1.000  C
  C285     1.0000 0.65566  0.60815  0.37607  Biso   1.000  C
  H224     1.0000 0.65760  0.47553  0.43878  Biso   1.000  H
  H225     1.0000 0.62869  0.53235  0.42918  Biso   1.000  H
  C286     1.0000 0.61888  0.43589  0.10235  Biso   1.000  C
  C287     1.0000 0.65023  0.26113  0.06255  Biso   1.000  C
  H226     1.0000 0.59060  0.54913  0.13662  Biso   1.000  H
  H227     1.0000 0.68250  0.31476  0.43169  Biso   1.000  H
  H228     1.0000 0.68551  0.16387  0.41141  Biso   1.000  H
  C288     1.0000 0.70194  0.30088  0.35930  Biso   1.000  C
  C289     1.0000 0.68263  0.62493  0.36663  Biso   1.000  C
  C290     1.0000 0.63833  0.69243  0.34977  Biso   1.000  C
  C291     1.0000 0.62893  0.54873  0.06809  Biso   1.000  C
  H229     1.0000 0.64970  0.32025  0.03092  Biso   1.000  H
  H230     1.0000 0.64601  0.16936  0.05060  Biso   1.000  H
  C292     1.0000 0.67775  0.26243  0.08574  Biso   1.000  C
  C293     1.0000 0.71298  0.42890  0.35914  Biso   1.000  C
  C294     1.0000 0.70994  0.20931  0.32073  Biso   1.000  C
  C295     1.0000 0.69057  0.71999  0.32973  Biso   1.000  C
  C296     1.0000 0.70372  0.54274  0.39424  Biso   1.000  C
  C297     1.0000 0.64626  0.78540  0.31260  Biso   1.000  C
  H231     1.0000 0.62019  0.68564  0.35778  Biso   1.000  H
  C298     1.0000 0.65021  0.62772  0.09666  Biso   1.000  C
  H232     1.0000 0.63600  0.51188  0.03450  Biso   1.000  H
  H233     1.0000 0.61431  0.60925  0.05901  Biso   1.000  H
  C299     1.0000 0.69446  0.37278  0.08359  Biso   1.000  C
  C300     1.0000 0.68631  0.14859  0.11247  Biso   1.000  C
  C301     1.0000 0.73278  0.45616  0.32264  Biso   1.000  C
  C302     1.0000 0.72850  0.24326  0.28260  Biso   1.000  C
  H234     1.0000 0.70251  0.12233  0.32041  Biso   1.000  H
  H235     1.0000 0.70870  0.73277  0.32340  Biso   1.000  H
  C303     1.0000 0.67267  0.79688  0.30184  Biso   1.000  C
  H236     1.0000 0.69670  0.50609  0.42791  Biso   1.000  H
  H237     1.0000 0.71869  0.60116  0.40300  Biso   1.000  H
  H238     1.0000 0.63389  0.84032  0.29479  Biso   1.000  H
  C304     1.0000 0.67710  0.60915  0.08793  Biso   1.000  C
  C305     1.0000 0.64232  0.72319  0.13399  Biso   1.000  C
  C306     1.0000 0.71816  0.36858  0.11124  Biso   1.000  C
  C307     1.0000 0.68820  0.49970  0.05279  Biso   1.000  C
  C308     1.0000 0.70982  0.14420  0.13977  Biso   1.000  C
  H239     1.0000 0.67560  0.07110  0.11200  Biso   1.000  H
  H240     1.0000 0.74121  0.54044  0.32432  Biso   1.000  H
  C309     1.0000 0.74066  0.36579  0.28419  Biso   1.000  C
  O39      1.0000 0.73358  0.14510  0.24491  Biso   1.000  O
  O40      1.0000 0.68345  0.88276  0.26435  Biso   1.000  O
  C310     1.0000 0.69467  0.69113  0.11502  Biso   1.000  C
  H241     1.0000 0.62420  0.73727  0.13989  Biso   1.000  H
  C311     1.0000 0.66028  0.79778  0.16252  Biso   1.000  C
  H242     1.0000 0.72960  0.44298  0.10961  Biso   1.000  H
  C312     1.0000 0.72518  0.25724  0.14104  Biso   1.000  C
  H243     1.0000 0.67540  0.47863  0.02438  Biso   1.000  H
  H244     1.0000 0.70441  0.53275  0.03550  Biso   1.000  H
  H245     1.0000 0.71519  0.06481  0.15722  Biso   1.000  H
  H246     1.0000 0.75410  0.38786  0.25961  Biso   1.000  H
  C313     1.0000 0.75379  0.16687  0.20794  Biso   1.000  C
  C314     1.0000 0.66655  0.95996  0.23232  Biso   1.000  C
  C315     1.0000 0.68676  0.78400  0.15224  Biso   1.000  C
  H247     1.0000 0.71281  0.68274  0.10761  Biso   1.000  H
  O41      1.0000 0.64951  0.88346  0.20005  Biso   1.000  O
  O42      1.0000 0.74805  0.26982  0.17064  Biso   1.000  O
  H248     1.0000 0.76999  0.19073  0.22742  Biso   1.000  H
  H249     1.0000 0.75719  0.08288  0.18829  Biso   1.000  H
  H250     1.0000 0.65600  0.01837  0.25571  Biso   1.000  H
  H251     1.0000 0.67720  0.01837  0.20901  Biso   1.000  H
  H252     1.0000 0.69921  0.83763  0.17048  Biso   1.000  H
  C316     1.0000 0.24066  0.13421  0.71581  Biso   1.000  C
  C317     1.0000 0.23278  0.04394  0.67736  Biso   1.000  C
  C318     1.0000 0.22850  0.25684  0.71740  Biso   1.000  C
  H253     1.0000 0.25410  0.11224  0.74039  Biso   1.000  H
  C319     1.0000 0.21298  0.07110  0.64086  Biso   1.000  C
  H254     1.0000 0.24121  0.95956  0.67568  Biso   1.000  H
  C320     1.0000 0.20994  0.29069  0.67927  Biso   1.000  C
  O43      1.0000 0.23358  0.35490  0.75509  Biso   1.000  O
  C321     1.0000 0.20194  0.19912  0.64070  Biso   1.000  C
  C322     1.0000 0.20372  0.95726  0.60576  Biso   1.000  C
  H255     1.0000 0.20251  0.37767  0.67959  Biso   1.000  H
  C323     1.0000 0.25379  0.33313  0.79206  Biso   1.000  C
  C324     1.0000 0.18150  0.24386  0.60006  Biso   1.000  C
  C325     1.0000 0.18263  0.87507  0.63337  Biso   1.000  C
  H256     1.0000 0.19670  0.99391  0.57209  Biso   1.000  H
  H257     1.0000 0.21869  0.89894  0.59700  Biso   1.000  H
  O44      1.0000 0.24805  0.23018  0.82936  Biso   1.000  O
  H258     1.0000 0.26999  0.30927  0.77258  Biso   1.000  H
  H259     1.0000 0.25719  0.41712  0.81171  Biso   1.000  H
  C326     1.0000 0.15389  0.23897  0.62253  Biso   1.000  C
  H260     1.0000 0.18250  0.18534  0.56831  Biso   1.000  H
  H261     1.0000 0.18551  0.33613  0.58859  Biso   1.000  H
  C327     1.0000 0.15566  0.89185  0.62393  Biso   1.000  C
  C328     1.0000 0.19057  0.78001  0.67027  Biso   1.000  C
  C329     1.0000 0.22518  0.24276  0.85896  Biso   1.000  C
  C330     1.0000 0.13763  0.12672  0.62002  Biso   1.000  C
  C331     1.0000 0.14476  0.35081  0.64963  Biso   1.000  C
  C332     1.0000 0.14458  0.00150  0.58899  Biso   1.000  C
  C333     1.0000 0.13833  0.80757  0.65023  Biso   1.000  C
  H262     1.0000 0.20870  0.76733  0.67660  Biso   1.000  H
  C334     1.0000 0.17267  0.70312  0.69816  Biso   1.000  C
  C335     1.0000 0.21816  0.13142  0.88876  Biso   1.000  C
  C336     1.0000 0.20982  0.35580  0.86023  Biso   1.000  C
  C337     1.0000 0.11409  0.12742  0.64831  Biso   1.000  C
  H263     1.0000 0.15490  0.43010  0.64871  Biso   1.000  H
  C338     1.0000 0.12152  0.35171  0.67792  Biso   1.000  C
  H264     1.0000 0.15760  0.02447  0.56122  Biso   1.000  H
  H265     1.0000 0.12869  0.96775  0.57082  Biso   1.000  H
  C339     1.0000 0.14626  0.71460  0.68740  Biso   1.000  C
  H266     1.0000 0.12019  0.81436  0.64222  Biso   1.000  H
  O45      1.0000 0.18345  0.61724  0.73565  Biso   1.000  O
  C340     1.0000 0.19446  0.12722  0.91641  Biso   1.000  C
  H267     1.0000 0.22960  0.05702  0.89039  Biso   1.000  H
  H268     1.0000 0.21519  0.43519  0.84278  Biso   1.000  H
  C341     1.0000 0.18631  0.35141  0.88753  Biso   1.000  C
  C342     1.0000 0.10673  0.23627  0.67899  Biso   1.000  C
  H269     1.0000 0.10290  0.05183  0.64652  Biso   1.000  H
  H270     1.0000 0.11589  0.42970  0.69620  Biso   1.000  H
  H271     1.0000 0.13389  0.65968  0.70521  Biso   1.000  H
  C343     1.0000 0.16655  0.54004  0.76768  Biso   1.000  C
  C344     1.0000 0.17775  0.23757  0.91426  Biso   1.000  C
  C345     1.0000 0.18820  0.00030  0.94721  Biso   1.000  C
  H272     1.0000 0.17560  0.42890  0.88800  Biso   1.000  H
  O46      1.0000 0.08437  0.21889  0.70947  Biso   1.000  O
  O47      1.0000 0.14951  0.61654  0.79995  Biso   1.000  O
  H273     1.0000 0.15600  0.48173  0.74429  Biso   1.000  H
  H274     1.0000 0.17720  0.48173  0.79099  Biso   1.000  H
  C346     1.0000 0.15023  0.23887  0.93745  Biso   1.000  C
  H275     1.0000 0.17540  0.02137  0.97562  Biso   1.000  H
  H276     1.0000 0.20441  0.96735  0.96450  Biso   1.000  H
  C347     1.0000 0.17710  0.89085  0.91207  Biso   1.000  C
  C348     1.0000 0.07745  0.32155  0.74593  Biso   1.000  C
  C349     1.0000 0.16028  0.70222  0.83748  Biso   1.000  C
  C350     1.0000 0.12959  0.19293  0.89757  Biso   1.000  C
  H277     1.0000 0.14970  0.17985  0.96908  Biso   1.000  H
  H278     1.0000 0.14601  0.33064  0.94940  Biso   1.000  H
  C351     1.0000 0.15021  0.87228  0.90334  Biso   1.000  C
  C352     1.0000 0.19467  0.80887  0.88498  Biso   1.000  C
  O48      1.0000 0.09717  0.34681  0.78386  Biso   1.000  O
  H279     1.0000 0.06119  0.29569  0.76469  Biso   1.000  H
  H280     1.0000 0.07389  0.40463  0.72581  Biso   1.000  H
  C353     1.0000 0.14232  0.77681  0.86601  Biso   1.000  C
  C354     1.0000 0.18676  0.71600  0.84776  Biso   1.000  C
  C355     1.0000 0.12111  0.28380  0.85920  Biso   1.000  C
  C356     1.0000 0.11888  0.06411  0.89765  Biso   1.000  C
  C357     1.0000 0.12893  0.95127  0.93191  Biso   1.000  C
  H281     1.0000 0.21281  0.81726  0.89239  Biso   1.000  H
  C358     1.0000 0.10245  0.24925  0.82147  Biso   1.000  C
  H282     1.0000 0.12420  0.76283  0.86011  Biso   1.000  H
  H283     1.0000 0.19921  0.66237  0.82952  Biso   1.000  H
  H284     1.0000 0.12830  0.37128  0.85892  Biso   1.000  H
  C359     1.0000 0.09885  0.03585  0.86159  Biso   1.000  C
  H285     1.0000 0.13600  0.98812  0.96550  Biso   1.000  H
  H286     1.0000 0.11431  0.89075  0.94099  Biso   1.000  H
  C360     1.0000 0.09053  0.12542  0.82350  Biso   1.000  C
  H287     1.0000 0.09060  0.95087  0.86338  Biso   1.000  H
  H288     1.0000 0.07690  0.10266  0.79931  Biso   1.000  H
  C361     1.0000 0.74621  0.33313  0.70792  Biso   1.000  C
  O49      1.0000 0.75195  0.23018  0.67066  Biso   1.000  O
  O50      1.0000 0.76642  0.35490  0.74489  Biso   1.000  O
  H289     1.0000 0.73001  0.30927  0.72740  Biso   1.000  H
  H290     1.0000 0.74281  0.41712  0.68831  Biso   1.000  H
  C362     1.0000 0.77482  0.24276  0.64106  Biso   1.000  C
  C363     1.0000 0.77150  0.25684  0.78262  Biso   1.000  C
  C364     1.0000 0.78184  0.13142  0.61126  Biso   1.000  C
  C365     1.0000 0.79018  0.35580  0.63975  Biso   1.000  C
  C366     1.0000 0.75934  0.13421  0.78421  Biso   1.000  C
  C367     1.0000 0.79006  0.29069  0.82071  Biso   1.000  C
  C368     1.0000 0.80554  0.12722  0.58361  Biso   1.000  C
  H291     1.0000 0.77040  0.05702  0.60959  Biso   1.000  H
  H292     1.0000 0.78481  0.43519  0.65720  Biso   1.000  H
  C369     1.0000 0.81369  0.35141  0.61245  Biso   1.000  C
  C370     1.0000 0.76722  0.04394  0.82266  Biso   1.000  C
  H293     1.0000 0.74590  0.11224  0.75959  Biso   1.000  H
  C371     1.0000 0.79806  0.19912  0.85932  Biso   1.000  C
  H294     1.0000 0.79749  0.37767  0.82039  Biso   1.000  H
  C372     1.0000 0.82225  0.23757  0.58572  Biso   1.000  C
  C373     1.0000 0.81180  0.00030  0.55277  Biso   1.000  C
  H295     1.0000 0.82440  0.42890  0.61202  Biso   1.000  H
  C374     1.0000 0.78702  0.07110  0.85916  Biso   1.000  C
  H296     1.0000 0.75879  0.95956  0.82430  Biso   1.000  H
  C375     1.0000 0.81850  0.24386  0.89992  Biso   1.000  C
  C376     1.0000 0.84977  0.23887  0.56253  Biso   1.000  C
  H297     1.0000 0.82460  0.02137  0.52440  Biso   1.000  H
  H298     1.0000 0.79559  0.96735  0.53552  Biso   1.000  H
  C377     1.0000 0.82290  0.89085  0.58795  Biso   1.000  C
  C378     1.0000 0.79628  0.95726  0.89422  Biso   1.000  C
  C379     1.0000 0.84611  0.23897  0.87745  Biso   1.000  C
  H299     1.0000 0.81750  0.18534  0.93171  Biso   1.000  H
  H300     1.0000 0.81449  0.33613  0.91139  Biso   1.000  H
  C380     1.0000 0.87041  0.19293  0.60245  Biso   1.000  C
  H301     1.0000 0.85030  0.17985  0.53090  Biso   1.000  H
  H302     1.0000 0.85399  0.33064  0.55062  Biso   1.000  H
  C381     1.0000 0.84979  0.87228  0.59668  Biso   1.000  C
  C382     1.0000 0.80533  0.80887  0.61504  Biso   1.000  C
  C383     1.0000 0.81737  0.87507  0.86665  Biso   1.000  C
  H303     1.0000 0.80330  0.99391  0.92789  Biso   1.000  H
  H304     1.0000 0.78131  0.89894  0.90298  Biso   1.000  H
  C384     1.0000 0.86237  0.12672  0.87996  Biso   1.000  C
  C385     1.0000 0.85524  0.35081  0.85039  Biso   1.000  C
  C386     1.0000 0.88112  0.06411  0.60237  Biso   1.000  C
  C387     1.0000 0.87889  0.28380  0.64078  Biso   1.000  C
  C388     1.0000 0.85768  0.77681  0.63397  Biso   1.000  C
  C389     1.0000 0.87107  0.95127  0.56811  Biso   1.000  C
  C390     1.0000 0.81324  0.71600  0.65226  Biso   1.000  C
  H305     1.0000 0.78719  0.81726  0.60759  Biso   1.000  H
  C391     1.0000 0.84434  0.89185  0.87605  Biso   1.000  C
  C392     1.0000 0.80943  0.78001  0.82975  Biso   1.000  C
  C393     1.0000 0.85542  0.00150  0.91103  Biso   1.000  C
  C394     1.0000 0.88591  0.12742  0.85167  Biso   1.000  C
  H306     1.0000 0.84510  0.43010  0.85131  Biso   1.000  H
  C395     1.0000 0.87848  0.35171  0.82206  Biso   1.000  C
  C396     1.0000 0.90115  0.03585  0.63843  Biso   1.000  C
  H307     1.0000 0.87170  0.37128  0.64110  Biso   1.000  H
  C397     1.0000 0.89755  0.24925  0.67855  Biso   1.000  C
  H308     1.0000 0.87580  0.76283  0.63991  Biso   1.000  H
  C398     1.0000 0.83972  0.70222  0.66254  Biso   1.000  C
  H309     1.0000 0.86400  0.98812  0.53448  Biso   1.000  H
  H310     1.0000 0.88569  0.89075  0.55899  Biso   1.000  H
  H311     1.0000 0.80079  0.66237  0.67050  Biso   1.000  H
  C399     1.0000 0.86167  0.80757  0.84979  Biso   1.000  C
  H312     1.0000 0.79130  0.76733  0.82342  Biso   1.000  H
  C400     1.0000 0.82733  0.70312  0.80186  Biso   1.000  C
  H313     1.0000 0.84240  0.02447  0.93880  Biso   1.000  H
  H314     1.0000 0.87131  0.96775  0.92920  Biso   1.000  H
  C401     1.0000 0.89327  0.23627  0.82103  Biso   1.000  C
  H315     1.0000 0.89710  0.05183  0.85350  Biso   1.000  H
  H316     1.0000 0.88411  0.42970  0.80382  Biso   1.000  H
  C402     1.0000 0.90947  0.12542  0.67648  Biso   1.000  C
  H317     1.0000 0.90940  0.95087  0.63660  Biso   1.000  H
  O51      1.0000 0.90283  0.34681  0.71616  Biso   1.000  O
  O52      1.0000 0.85049  0.61654  0.70003  Biso   1.000  O
  C403     1.0000 0.85374  0.71460  0.81258  Biso   1.000  C
  H318     1.0000 0.87981  0.81436  0.85780  Biso   1.000  H
  O53      1.0000 0.81655  0.61724  0.76437  Biso   1.000  O
  O54      1.0000 0.91563  0.21889  0.79055  Biso   1.000  O
  H319     1.0000 0.92310  0.10266  0.70071  Biso   1.000  H
  C404     1.0000 0.92255  0.32155  0.75409  Biso   1.000  C
  C405     1.0000 0.83345  0.54004  0.73230  Biso   1.000  C
  H320     1.0000 0.86611  0.65968  0.79481  Biso   1.000  H
  H321     1.0000 0.93881  0.29569  0.73529  Biso   1.000  H
  H322     1.0000 0.92611  0.40463  0.77421  Biso   1.000  H
  H323     1.0000 0.84400  0.48173  0.75569  Biso   1.000  H
  H324     1.0000 0.82280  0.48173  0.70899  Biso   1.000  H
  O55      1.0000 0.08374  0.72059  0.70919  Biso   1.000  O
  C406     1.0000 0.06303  0.73577  0.67393  Biso   1.000  C
  C407     1.0000 0.08828  0.82425  0.74672  Biso   1.000  C
  C408     1.0000 0.05748  0.62502  0.64285  Biso   1.000  C
  C409     1.0000 0.04845  0.85091  0.66839  Biso   1.000  C
  O56      1.0000 0.06664  0.84841  0.78007  Biso   1.000  O
  H325     1.0000 0.09260  0.90743  0.72732  Biso   1.000  H
  H326     1.0000 0.10350  0.80028  0.76899  Biso   1.000  H
  C410     1.0000 0.03582  0.62213  0.60895  Biso   1.000  C
  H327     1.0000 0.06860  0.54933  0.64461  Biso   1.000  H
  C411     1.0000 0.02695  0.84801  0.63489  Biso   1.000  C
  H328     1.0000 0.05300  0.93010  0.68700  Biso   1.000  H
  C412     1.0000 0.05965  0.75065  0.81637  Biso   1.000  C
  C413     1.0000 0.03105  0.49650  0.57660  Biso   1.000  C
  C414     1.0000 0.01950  0.73487  0.60664  Biso   1.000  C
  H329     1.0000 0.01681  0.92690  0.63098  Biso   1.000  H
  C415     1.0000 0.03920  0.78510  0.85051  Biso   1.000  C
  C416     1.0000 0.07147  0.62712  0.82043  Biso   1.000  C
  C417     1.0000 0.01802  0.38676  0.60863  Biso   1.000  C
  H330     1.0000 0.04800  0.46325  0.56281  Biso   1.000  H
  H331     1.0000 0.01990  0.51877  0.54560  Biso   1.000  H
  C418     1.0000 0.99351  0.73797  0.57763  Biso   1.000  C
  C419     1.0000 0.02914  0.69323  0.88693  Biso   1.000  C
  H332     1.0000 0.03199  0.87258  0.84892  Biso   1.000  H
  H333     1.0000 0.08611  0.60495  0.79892  Biso   1.000  H
  C420     1.0000 0.06146  0.53695  0.85657  Biso   1.000  C
  C421     1.0000 0.03401  0.30308  0.63879  Biso   1.000  C
  C422     1.0000 0.99083  0.36888  0.61162  Biso   1.000  C
  C423     1.0000 0.97086  0.69323  0.61309  Biso   1.000  C
  H334     1.0000 0.99009  0.82984  0.56488  Biso   1.000  H
  H335     1.0000 0.99451  0.67865  0.54612  Biso   1.000  H
  C424     1.0000 0.03985  0.56461  0.88876  Biso   1.000  C
  C425     1.0000 0.00649  0.73797  0.92235  Biso   1.000  C
  H336     1.0000 0.06959  0.45217  0.85972  Biso   1.000  H
  C426     1.0000 0.02406  0.21001  0.67417  Biso   1.000  C
  H337     1.0000 0.05240  0.31027  0.63489  Biso   1.000  H
  C427     1.0000 0.98096  0.27372  0.64692  Biso   1.000  C
  C428     1.0000 0.97151  0.45037  0.57899  Biso   1.000  C
  C429     1.0000 0.96015  0.56461  0.61126  Biso   1.000  C
  C430     1.0000 0.96080  0.78510  0.64951  Biso   1.000  C
  C431     1.0000 0.02849  0.45037  0.92099  Biso   1.000  C
  H338     1.0000 0.00991  0.82984  0.93510  Biso   1.000  H
  H339     1.0000 0.00549  0.67865  0.95390  Biso   1.000  H
  C432     1.0000 0.98050  0.73487  0.89334  Biso   1.000  C
  H340     1.0000 0.03539  0.15538  0.69469  Biso   1.000  H
  C433     1.0000 0.99726  0.19802  0.67895  Biso   1.000  C
  H341     1.0000 0.96259  0.26064  0.64899  Biso   1.000  H
  H342     1.0000 0.95720  0.39175  0.56672  Biso   1.000  H
  H343     1.0000 0.98040  0.48672  0.54719  Biso   1.000  H
  C434     1.0000 0.93854  0.53695  0.64341  Biso   1.000  C
  H344     1.0000 0.96801  0.87258  0.65110  Biso   1.000  H
  C435     1.0000 0.94035  0.75065  0.68361  Biso   1.000  C
  C436     1.0000 0.00917  0.36888  0.88840  Biso   1.000  C
  H345     1.0000 0.04280  0.39175  0.93330  Biso   1.000  H
  H346     1.0000 0.01960  0.48672  0.95279  Biso   1.000  H
  C437     1.0000 0.96418  0.62213  0.89103  Biso   1.000  C
  C438     1.0000 0.97305  0.84801  0.86509  Biso   1.000  C
  O57      1.0000 0.98470  0.11344  0.71445  Biso   1.000  O
  C439     1.0000 0.92853  0.62712  0.67959  Biso   1.000  C
  H347     1.0000 0.93041  0.45217  0.64030  Biso   1.000  H
  O58      1.0000 0.93336  0.84841  0.71991  Biso   1.000  O
  C440     1.0000 0.01904  0.27372  0.85310  Biso   1.000  C
  C441     1.0000 0.98198  0.38676  0.89139  Biso   1.000  C
  C442     1.0000 0.94252  0.62502  0.85713  Biso   1.000  C
  C443     1.0000 0.96895  0.49650  0.92338  Biso   1.000  C
  C444     1.0000 0.95155  0.85091  0.83163  Biso   1.000  C
  H348     1.0000 0.98319  0.92690  0.86900  Biso   1.000  H
  C445     1.0000 0.00000  0.03695  0.74999  Biso   1.000  C
  H349     1.0000 0.91389  0.60495  0.70110  Biso   1.000  H
  C446     1.0000 0.91172  0.82425  0.75330  Biso   1.000  C
  C447     1.0000 0.00274  0.19802  0.82103  Biso   1.000  C
  H350     1.0000 0.03741  0.26064  0.85099  Biso   1.000  H
  C448     1.0000 0.96599  0.30308  0.86119  Biso   1.000  C
  C449     1.0000 0.93697  0.73577  0.82605  Biso   1.000  C
  H351     1.0000 0.93140  0.54933  0.85541  Biso   1.000  H
  H352     1.0000 0.95200  0.46325  0.93721  Biso   1.000  H
  H353     1.0000 0.98010  0.51877  0.95438  Biso   1.000  H
  H354     1.0000 0.94700  0.93010  0.81298  Biso   1.000  H
  O59      1.0000 0.01530  0.11344  0.78553  Biso   1.000  O
  H355     1.0000 0.98829  0.97853  0.77099  Biso   1.000  H
  H356     1.0000 0.01171  0.97853  0.72899  Biso   1.000  H
  H357     1.0000 0.90740  0.90743  0.77270  Biso   1.000  H
  H358     1.0000 0.89650  0.80028  0.73099  Biso   1.000  H
  O60      1.0000 0.91626  0.72059  0.79079  Biso   1.000  O
  C450     1.0000 0.97594  0.21001  0.82585  Biso   1.000  C
  H359     1.0000 0.94760  0.31027  0.86509  Biso   1.000  H
  H360     1.0000 0.96461  0.15538  0.80529  Biso   1.000  H
  C451     1.0000 0.74621  0.66697  0.20794  Biso   1.000  C
  O61      1.0000 0.75195  0.76992  0.17064  Biso   1.000  O
  O62      1.0000 0.76642  0.64510  0.24491  Biso   1.000  O
  H361     1.0000 0.73001  0.69073  0.22742  Biso   1.000  H
  H362     1.0000 0.74281  0.58288  0.18829  Biso   1.000  H
  C452     1.0000 0.77482  0.75724  0.14104  Biso   1.000  C
  C453     1.0000 0.77150  0.74326  0.28260  Biso   1.000  C
  C454     1.0000 0.78184  0.86868  0.11124  Biso   1.000  C
  C455     1.0000 0.79018  0.64420  0.13977  Biso   1.000  C
  C456     1.0000 0.75934  0.86579  0.28419  Biso   1.000  C
  C457     1.0000 0.79006  0.70931  0.32073  Biso   1.000  C
  C458     1.0000 0.80554  0.87288  0.08359  Biso   1.000  C
  H363     1.0000 0.77040  0.94308  0.10961  Biso   1.000  H
  H364     1.0000 0.78481  0.56481  0.15722  Biso   1.000  H
  C459     1.0000 0.81369  0.64859  0.11247  Biso   1.000  C
  C460     1.0000 0.76722  0.95616  0.32264  Biso   1.000  C
  H365     1.0000 0.74590  0.88786  0.25961  Biso   1.000  H
  C461     1.0000 0.79806  0.80098  0.35930  Biso   1.000  C
  H366     1.0000 0.79749  0.62233  0.32041  Biso   1.000  H
  C462     1.0000 0.82225  0.76243  0.08574  Biso   1.000  C
  C463     1.0000 0.81180  0.99970  0.05279  Biso   1.000  C
  H367     1.0000 0.82440  0.57110  0.11200  Biso   1.000  H
  C464     1.0000 0.78702  0.92890  0.35914  Biso   1.000  C
  H368     1.0000 0.75879  0.04044  0.32432  Biso   1.000  H
  C465     1.0000 0.81850  0.75624  0.39994  Biso   1.000  C
  C466     1.0000 0.84977  0.76113  0.06255  Biso   1.000  C
  H369     1.0000 0.82460  0.97863  0.02438  Biso   1.000  H
  H370     1.0000 0.79559  0.03275  0.03550  Biso   1.000  H
  C467     1.0000 0.82290  0.10915  0.08793  Biso   1.000  C
  C468     1.0000 0.79628  0.04274  0.39424  Biso   1.000  C
  C469     1.0000 0.84611  0.76103  0.37747  Biso   1.000  C
  H371     1.0000 0.81750  0.81476  0.43169  Biso   1.000  H
  H372     1.0000 0.81449  0.66397  0.41141  Biso   1.000  H
  C470     1.0000 0.87041  0.80717  0.10243  Biso   1.000  C
  H373     1.0000 0.85030  0.82025  0.03092  Biso   1.000  H
  H374     1.0000 0.85399  0.66946  0.05060  Biso   1.000  H
  C471     1.0000 0.84979  0.12772  0.09666  Biso   1.000  C
  C472     1.0000 0.80533  0.19113  0.11502  Biso   1.000  C
  C473     1.0000 0.81737  0.12493  0.36663  Biso   1.000  C
  H375     1.0000 0.80330  0.00609  0.42791  Biso   1.000  H
  H376     1.0000 0.78131  0.10116  0.40300  Biso   1.000  H
  C474     1.0000 0.86237  0.87338  0.37998  Biso   1.000  C
  C475     1.0000 0.85524  0.64919  0.35037  Biso   1.000  C
  C476     1.0000 0.88112  0.93589  0.10235  Biso   1.000  C
  C477     1.0000 0.87889  0.71620  0.14080  Biso   1.000  C
  C478     1.0000 0.85768  0.22329  0.13399  Biso   1.000  C
  C479     1.0000 0.87107  0.04873  0.06809  Biso   1.000  C
  C480     1.0000 0.81324  0.28400  0.15224  Biso   1.000  C
  H377     1.0000 0.78719  0.18274  0.10761  Biso   1.000  H
  C481     1.0000 0.84434  0.10815  0.37607  Biso   1.000  C
  C482     1.0000 0.80943  0.22009  0.32973  Biso   1.000  C
  C483     1.0000 0.85542  0.99850  0.41101  Biso   1.000  C
  C484     1.0000 0.88591  0.87268  0.35169  Biso   1.000  C
  H378     1.0000 0.84510  0.56990  0.35129  Biso   1.000  H
  C485     1.0000 0.87848  0.64829  0.32208  Biso   1.000  C
  C486     1.0000 0.90115  0.96425  0.13841  Biso   1.000  C
  H379     1.0000 0.87170  0.62872  0.14108  Biso   1.000  H
  C487     1.0000 0.89755  0.75085  0.17853  Biso   1.000  C
  H380     1.0000 0.87580  0.23727  0.13989  Biso   1.000  H
  C488     1.0000 0.83972  0.29788  0.16252  Biso   1.000  C
  H381     1.0000 0.86400  0.01198  0.03450  Biso   1.000  H
  H382     1.0000 0.88569  0.10925  0.05901  Biso   1.000  H
  H383     1.0000 0.80079  0.33763  0.17048  Biso   1.000  H
  C489     1.0000 0.86167  0.19243  0.34977  Biso   1.000  C
  H384     1.0000 0.79130  0.23277  0.32340  Biso   1.000  H
  C490     1.0000 0.82733  0.29698  0.30184  Biso   1.000  C
  H385     1.0000 0.84240  0.97553  0.43878  Biso   1.000  H
  H386     1.0000 0.87131  0.03235  0.42918  Biso   1.000  H
  C491     1.0000 0.89327  0.76373  0.32101  Biso   1.000  C
  H387     1.0000 0.89710  0.94827  0.35348  Biso   1.000  H
  H388     1.0000 0.88411  0.57030  0.30380  Biso   1.000  H
  C492     1.0000 0.90947  0.87468  0.17650  Biso   1.000  C
  H389     1.0000 0.90940  0.04913  0.13662  Biso   1.000  H
  O63      1.0000 0.90283  0.65329  0.21614  Biso   1.000  O
  O64      1.0000 0.85049  0.38346  0.20005  Biso   1.000  O
  C493     1.0000 0.85374  0.28550  0.31260  Biso   1.000  C
  H390     1.0000 0.87981  0.18564  0.35778  Biso   1.000  H
  O65      1.0000 0.81655  0.38286  0.26435  Biso   1.000  O
  O66      1.0000 0.91563  0.78111  0.29053  Biso   1.000  O
  H391     1.0000 0.92310  0.89734  0.20069  Biso   1.000  H
  C494     1.0000 0.92255  0.67855  0.25407  Biso   1.000  C
  C495     1.0000 0.83345  0.45996  0.23232  Biso   1.000  C
  H392     1.0000 0.86611  0.34032  0.29479  Biso   1.000  H
  H393     1.0000 0.93881  0.70431  0.23531  Biso   1.000  H
  H394     1.0000 0.92611  0.59547  0.27419  Biso   1.000  H
  H395     1.0000 0.84400  0.51837  0.25571  Biso   1.000  H
  H396     1.0000 0.82280  0.51837  0.20901  Biso   1.000  H
  C496     1.0000 0.08828  0.17585  0.24670  Biso   1.000  C
  O67      1.0000 0.06664  0.15159  0.28009  Biso   1.000  O
  H397     1.0000 0.09260  0.09257  0.22730  Biso   1.000  H
  H398     1.0000 0.10350  0.19982  0.26901  Biso   1.000  H
  O68      1.0000 0.08374  0.27951  0.20921  Biso   1.000  O
  C497     1.0000 0.05965  0.24945  0.31639  Biso   1.000  C
  C498     1.0000 0.06303  0.26433  0.17395  Biso   1.000  C
  C499     1.0000 0.03920  0.21490  0.35049  Biso   1.000  C
  C500     1.0000 0.07147  0.37288  0.32041  Biso   1.000  C
  C501     1.0000 0.05748  0.37498  0.14287  Biso   1.000  C
  C502     1.0000 0.04845  0.14909  0.16837  Biso   1.000  C
  C503     1.0000 0.02914  0.30677  0.38691  Biso   1.000  C
  H399     1.0000 0.03199  0.12752  0.34890  Biso   1.000  H
  H400     1.0000 0.08611  0.39515  0.29890  Biso   1.000  H
  C504     1.0000 0.06146  0.46315  0.35659  Biso   1.000  C
  C505     1.0000 0.03582  0.37787  0.10897  Biso   1.000  C
  H401     1.0000 0.06860  0.45067  0.14459  Biso   1.000  H
  H402     1.0000 0.05300  0.06990  0.18702  Biso   1.000  H
  C506     1.0000 0.02695  0.15199  0.13491  Biso   1.000  C
  C507     1.0000 0.03985  0.43539  0.38874  Biso   1.000  C
  C508     1.0000 0.00649  0.26213  0.42237  Biso   1.000  C
  H403     1.0000 0.06959  0.54793  0.35970  Biso   1.000  H
  C509     1.0000 0.01950  0.26523  0.10666  Biso   1.000  C
  C510     1.0000 0.03105  0.50350  0.07662  Biso   1.000  C
  H404     1.0000 0.01681  0.07310  0.13100  Biso   1.000  H
  C511     1.0000 0.02849  0.54963  0.42101  Biso   1.000  C
  H405     1.0000 0.00991  0.17016  0.43512  Biso   1.000  H
  H406     1.0000 0.00549  0.32145  0.45388  Biso   1.000  H
  C512     1.0000 0.98050  0.26523  0.39336  Biso   1.000  C
  C513     1.0000 0.99351  0.26213  0.07765  Biso   1.000  C
  C514     1.0000 0.01802  0.61334  0.10861  Biso   1.000  C
  H407     1.0000 0.04800  0.53685  0.06279  Biso   1.000  H
  H408     1.0000 0.01990  0.48123  0.04562  Biso   1.000  H
  C515     1.0000 0.00917  0.63112  0.38838  Biso   1.000  C
  H409     1.0000 0.04280  0.60835  0.43328  Biso   1.000  H
  H410     1.0000 0.01960  0.51328  0.45281  Biso   1.000  H
  C516     1.0000 0.96418  0.37787  0.39105  Biso   1.000  C
  C517     1.0000 0.97305  0.15199  0.36511  Biso   1.000  C
  C518     1.0000 0.97086  0.30677  0.11307  Biso   1.000  C
  H411     1.0000 0.99009  0.17016  0.06490  Biso   1.000  H
  H412     1.0000 0.99451  0.32145  0.04610  Biso   1.000  H
  C519     1.0000 0.03401  0.69692  0.13881  Biso   1.000  C
  C520     1.0000 0.99083  0.63112  0.11160  Biso   1.000  C
  C521     1.0000 0.01904  0.72628  0.35308  Biso   1.000  C
  C522     1.0000 0.98198  0.61334  0.39137  Biso   1.000  C
  C523     1.0000 0.94252  0.37498  0.35715  Biso   1.000  C
  C524     1.0000 0.96895  0.50350  0.42340  Biso   1.000  C
  C525     1.0000 0.95155  0.14909  0.33161  Biso   1.000  C
  H413     1.0000 0.98319  0.07310  0.36902  Biso   1.000  H
  C526     1.0000 0.96015  0.43539  0.11124  Biso   1.000  C
  C527     1.0000 0.96080  0.21490  0.14949  Biso   1.000  C
  C528     1.0000 0.02406  0.78999  0.17415  Biso   1.000  C
  H414     1.0000 0.05240  0.68973  0.13491  Biso   1.000  H
  C529     1.0000 0.98096  0.72628  0.14690  Biso   1.000  C
  C530     1.0000 0.97151  0.54963  0.07901  Biso   1.000  C
  H415     1.0000 0.03741  0.73946  0.35101  Biso   1.000  H
  C531     1.0000 0.00274  0.80208  0.32105  Biso   1.000  C
  C532     1.0000 0.96599  0.69692  0.36121  Biso   1.000  C
  H416     1.0000 0.93140  0.45067  0.35539  Biso   1.000  H
  C533     1.0000 0.93697  0.26433  0.32607  Biso   1.000  C
  H417     1.0000 0.95200  0.53685  0.43719  Biso   1.000  H
  H418     1.0000 0.98010  0.48123  0.45440  Biso   1.000  H
  H419     1.0000 0.94700  0.06990  0.31300  Biso   1.000  H
  C534     1.0000 0.93854  0.46315  0.14343  Biso   1.000  C
  H420     1.0000 0.96801  0.12752  0.15108  Biso   1.000  H
  C535     1.0000 0.94035  0.24945  0.18363  Biso   1.000  C
  H421     1.0000 0.03539  0.84462  0.19471  Biso   1.000  H
  C536     1.0000 0.99726  0.80208  0.17897  Biso   1.000  C
  H422     1.0000 0.96259  0.73946  0.14901  Biso   1.000  H
  H423     1.0000 0.95720  0.60835  0.06670  Biso   1.000  H
  H424     1.0000 0.98040  0.51328  0.04721  Biso   1.000  H
  O69      1.0000 0.01530  0.88656  0.28555  Biso   1.000  O
  C537     1.0000 0.97594  0.78999  0.32583  Biso   1.000  C
  H425     1.0000 0.94760  0.68973  0.36511  Biso   1.000  H
  O70      1.0000 0.91626  0.27951  0.29081  Biso   1.000  O
  C538     1.0000 0.92853  0.37288  0.17957  Biso   1.000  C
  H426     1.0000 0.93041  0.54793  0.14028  Biso   1.000  H
  O71      1.0000 0.93336  0.15159  0.21993  Biso   1.000  O
  O72      1.0000 0.98470  0.88656  0.21447  Biso   1.000  O
  C539     1.0000 0.00000  0.96315  0.25001  Biso   1.000  C
  H427     1.0000 0.96461  0.84462  0.30531  Biso   1.000  H
  C540     1.0000 0.91172  0.17585  0.25328  Biso   1.000  C
  H428     1.0000 0.91389  0.39515  0.20108  Biso   1.000  H
  H429     1.0000 0.98829  0.02157  0.27101  Biso   1.000  H
  H430     1.0000 0.01171  0.02157  0.22901  Biso   1.000  H
  H431     1.0000 0.90740  0.09257  0.27268  Biso   1.000  H
  H432     1.0000 0.89650  0.19982  0.23101  Biso   1.000  H
