data_image0
_cell_length_a       32.848
_cell_length_b       34.298
_cell_length_c       31.413
_cell_angle_alpha    90
_cell_angle_beta     90
_cell_angle_gamma    90

_symmetry_space_group_name_H-M    "P 1"
_symmetry_int_tables_number       1

loop_
  _symmetry_equiv_pos_as_xyz
  'x, y, z'

loop_
  _atom_site_label
  _atom_site_occupancy
  _atom_site_fract_x
  _atom_site_fract_y
  _atom_site_fract_z
  _atom_site_thermal_displace_type
  _atom_site_B_iso_or_equiv
  _atom_site_type_symbol
  C1       1.0000 0.48450  0.40271  0.50151  Biso   1.000  C
  C2       1.0000 0.50691  0.40320  0.45930  Biso   1.000  C
  N1       1.0000 0.44070  0.40160  0.49429  Biso   1.000  N
  H1       1.0000 0.49269  0.37999  0.51781  Biso   1.000  H
  H2       1.0000 0.49151  0.42580  0.51772  Biso   1.000  H
  N2       1.0000 0.55121  0.40731  0.46710  Biso   1.000  N
  H3       1.0000 0.50161  0.37921  0.44399  Biso   1.000  H
  H4       1.0000 0.49729  0.42481  0.44211  Biso   1.000  H
  C3       1.0000 0.41631  0.40871  0.53389  Biso   1.000  C
  H5       1.0000 0.43400  0.37839  0.48369  Biso   1.000  H
  H6       1.0000 0.43421  0.41950  0.47499  Biso   1.000  H
  C4       1.0000 0.57629  0.41320  0.42829  Biso   1.000  C
  H7       1.0000 0.55991  0.38591  0.48041  Biso   1.000  H
  H8       1.0000 0.55510  0.42740  0.48451  Biso   1.000  H
  C5       1.0000 0.41890  0.37559  0.56550  Biso   1.000  C
  H9       1.0000 0.38809  0.41271  0.52609  Biso   1.000  H
  H10      1.0000 0.42599  0.43239  0.54738  Biso   1.000  H
  C6       1.0000 0.57891  0.37749  0.40060  Biso   1.000  C
  H11      1.0000 0.60351  0.42081  0.43670  Biso   1.000  H
  H12      1.0000 0.56481  0.43440  0.41180  Biso   1.000  H
  C7       1.0000 0.39250  0.34381  0.56040  Biso   1.000  C
  C8       1.0000 0.44621  0.37641  0.59969  Biso   1.000  C
  C9       1.0000 0.55471  0.37460  0.36431  Biso   1.000  C
  C10      1.0000 0.60710  0.34880  0.40938  Biso   1.000  C
  C11      1.0000 0.39409  0.31331  0.58909  Biso   1.000  C
  H13      1.0000 0.37400  0.34320  0.53790  Biso   1.000  H
  C12      1.0000 0.44739  0.34501  0.62891  Biso   1.000  C
  H14      1.0000 0.46359  0.39760  0.60319  Biso   1.000  H
  C13      1.0000 0.55821  0.34159  0.33801  Biso   1.000  C
  H15      1.0000 0.53641  0.39431  0.35759  Biso   1.000  H
  C14      1.0000 0.61069  0.31611  0.38369  Biso   1.000  C
  H16      1.0000 0.62390  0.35130  0.43310  Biso   1.000  H
  C15      1.0000 0.36581  0.27850  0.58310  Biso   1.000  C
  C16      1.0000 0.42121  0.31401  0.62251  Biso   1.000  C
  C17      1.0000 0.47580  0.34509  0.66530  Biso   1.000  C
  C18      1.0000 0.53270  0.33769  0.29841  Biso   1.000  C
  C19      1.0000 0.58591  0.31279  0.34890  Biso   1.000  C
  C20      1.0000 0.64260  0.28529  0.39270  Biso   1.000  C
  N3       1.0000 0.38389  0.24940  0.55429  Biso   1.000  N
  H17      1.0000 0.36039  0.26649  0.61061  Biso   1.000  H
  H18      1.0000 0.34011  0.28739  0.57151  Biso   1.000  H
  H19      1.0000 0.42179  0.29311  0.64130  Biso   1.000  H
  N4       1.0000 0.51909  0.33850  0.65301  Biso   1.000  N
  H20      1.0000 0.46761  0.32489  0.68510  Biso   1.000  H
  H21      1.0000 0.47370  0.36999  0.67981  Biso   1.000  H
  N5       1.0000 0.48849  0.33349  0.30720  Biso   1.000  N
  H22      1.0000 0.53690  0.36040  0.28071  Biso   1.000  H
  H23      1.0000 0.54189  0.31500  0.28249  Biso   1.000  H
  H24      1.0000 0.58780  0.29060  0.33200  Biso   1.000  H
  N6       1.0000 0.62841  0.25771  0.42549  Biso   1.000  N
  H25      1.0000 0.64859  0.27121  0.36660  Biso   1.000  H
  H26      1.0000 0.66741  0.29780  0.40219  Biso   1.000  H
  C21      1.0000 0.35780  0.21459  0.54879  Biso   1.000  C
  H27      1.0000 0.40791  0.24191  0.56470  Biso   1.000  H
  H28      1.0000 0.38821  0.26031  0.52898  Biso   1.000  H
  H29      1.0000 0.52801  0.35909  0.63849  Biso   1.000  H
  H30      1.0000 0.53410  0.33661  0.67650  Biso   1.000  H
  C22      1.0000 0.52499  0.30320  0.62710  Biso   1.000  C
  C23      1.0000 0.46700  0.30871  0.33941  Biso   1.000  C
  C24      1.0000 0.48670  0.29591  0.33359  Biso   1.000  C
  H31      1.0000 0.47759  0.32681  0.28240  Biso   1.000  H
  H32      1.0000 0.47991  0.35760  0.31239  Biso   1.000  H
  H33      1.0000 0.47440  0.33119  0.28319  Biso   1.000  H
  H34      1.0000 0.47909  0.35381  0.32190  Biso   1.000  H
  H35      1.0000 0.60351  0.24949  0.41881  Biso   1.000  H
  H36      1.0000 0.62689  0.26999  0.45039  Biso   1.000  H
  C25      1.0000 0.65611  0.22299  0.42989  Biso   1.000  C
  C26      1.0000 0.35911  0.19990  0.50511  Biso   1.000  C
  H37      1.0000 0.36681  0.19430  0.56811  Biso   1.000  H
  H38      1.0000 0.33000  0.22121  0.55611  Biso   1.000  H
  C27      1.0000 0.56990  0.29850  0.61869  Biso   1.000  C
  H39      1.0000 0.51029  0.30570  0.60039  Biso   1.000  H
  H40      1.0000 0.51461  0.28060  0.64209  Biso   1.000  H
  C28      1.0000 0.44691  0.27719  0.32522  Biso   1.000  C
  H41      1.0000 0.48731  0.29999  0.35991  Biso   1.000  H
  H42      1.0000 0.44809  0.32509  0.35460  Biso   1.000  H
  H43      1.0000 0.48941  0.30191  0.36361  Biso   1.000  H
  H44      1.0000 0.50871  0.27859  0.32550  Biso   1.000  H
  C29      1.0000 0.64391  0.20001  0.46729  Biso   1.000  C
  H45      1.0000 0.65441  0.20710  0.40451  Biso   1.000  H
  H46      1.0000 0.68400  0.23179  0.43310  Biso   1.000  H
  N7       1.0000 0.33451  0.16360  0.49932  Biso   1.000  N
  H47      1.0000 0.38721  0.19459  0.49741  Biso   1.000  H
  H48      1.0000 0.34900  0.21990  0.48601  Biso   1.000  H
  N8       1.0000 0.57821  0.26229  0.59319  Biso   1.000  N
  H49      1.0000 0.57991  0.32110  0.60329  Biso   1.000  H
  H50      1.0000 0.58439  0.29710  0.64559  Biso   1.000  H
  N9       1.0000 0.43991  0.24421  0.35418  Biso   1.000  N
  H51      1.0000 0.46149  0.26730  0.30061  Biso   1.000  H
  H52      1.0000 0.42051  0.28599  0.31519  Biso   1.000  H
  H53      1.0000 0.42529  0.29620  0.32881  Biso   1.000  H
  H54      1.0000 0.44608  0.26800  0.29599  Biso   1.000  H
  N10      1.0000 0.67149  0.16689  0.47541  Biso   1.000  N
  H55      1.0000 0.61651  0.19019  0.46299  Biso   1.000  H
  H56      1.0000 0.64360  0.21681  0.49218  Biso   1.000  H
  C30      1.0000 0.32510  0.15371  0.45449  Biso   1.000  C
  H57      1.0000 0.34800  0.14380  0.51090  Biso   1.000  H
  H58      1.0000 0.31119  0.16631  0.51339  Biso   1.000  H
  C31      1.0000 0.57739  0.22479  0.61850  Biso   1.000  C
  H59      1.0000 0.60250  0.26471  0.58091  Biso   1.000  H
  H60      1.0000 0.55970  0.26069  0.57250  Biso   1.000  H
  C32      1.0000 0.40779  0.21739  0.33929  Biso   1.000  C
  H61      1.0000 0.43299  0.25340  0.37972  Biso   1.000  H
  H62      1.0000 0.46301  0.23089  0.35721  Biso   1.000  H
  C33      1.0000 0.67761  0.15969  0.52141  Biso   1.000  C
  H63      1.0000 0.69551  0.17170  0.46331  Biso   1.000  H
  H64      1.0000 0.66120  0.14561  0.46331  Biso   1.000  H
  C34      1.0000 0.36179  0.15310  0.42591  Biso   1.000  C
  H65      1.0000 0.30571  0.17249  0.44361  Biso   1.000  H
  H66      1.0000 0.31220  0.12820  0.45379  Biso   1.000  H
  C35      1.0000 0.58950  0.19071  0.59198  Biso   1.000  C
  H67      1.0000 0.59590  0.22710  0.64250  Biso   1.000  H
  H68      1.0000 0.55020  0.22060  0.62961  Biso   1.000  H
  C36      1.0000 0.40219  0.18430  0.37099  Biso   1.000  C
  H69      1.0000 0.41531  0.20681  0.31181  Biso   1.000  H
  H70      1.0000 0.38240  0.23150  0.33610  Biso   1.000  H
  C37      1.0000 0.63751  0.15951  0.54551  Biso   1.000  C
  H71      1.0000 0.69511  0.17969  0.53300  Biso   1.000  H
  H72      1.0000 0.69109  0.13470  0.52520  Biso   1.000  H
  C38      1.0000 0.36919  0.18430  0.39920  Biso   1.000  C
  C39      1.0000 0.38840  0.12161  0.42559  Biso   1.000  C
  C40      1.0000 0.56411  0.15800  0.58969  Biso   1.000  C
  C41      1.0000 0.62640  0.19010  0.56999  Biso   1.000  C
  C42      1.0000 0.42861  0.15231  0.37090  Biso   1.000  C
  C43      1.0000 0.61191  0.12639  0.54401  Biso   1.000  C
  H73      1.0000 0.35189  0.20581  0.39999  Biso   1.000  H
  C44      1.0000 0.42170  0.12211  0.39821  Biso   1.000  C
  H74      1.0000 0.38401  0.10041  0.44342  Biso   1.000  H
  C45      1.0000 0.57620  0.12531  0.56610  Biso   1.000  C
  H75      1.0000 0.53921  0.15800  0.60389  Biso   1.000  H
  H76      1.0000 0.64391  0.21130  0.57231  Biso   1.000  H
  H77      1.0000 0.45071  0.15170  0.35240  Biso   1.000  H
  H78      1.0000 0.61961  0.10499  0.52771  Biso   1.000  H
  C46      1.0000 0.45129  0.08680  0.39630  Biso   1.000  C
  C47      1.0000 0.55069  0.09001  0.56559  Biso   1.000  C
  N11      1.0000 0.48931  0.09470  0.42170  Biso   1.000  N
  H79      1.0000 0.43780  0.06379  0.40751  Biso   1.000  H
  H80      1.0000 0.45860  0.08161  0.36689  Biso   1.000  H
  N12      1.0000 0.51370  0.09289  0.53799  Biso   1.000  N
  H81      1.0000 0.54210  0.08420  0.59450  Biso   1.000  H
  H82      1.0000 0.56710  0.06820  0.55579  Biso   1.000  H
  H83      1.0000 0.50801  0.07691  0.41531  Biso   1.000  H
  H84      1.0000 0.49921  0.11791  0.41451  Biso   1.000  H
  C48      1.0000 0.48170  0.09391  0.46729  Biso   1.000  C
  C49      1.0000 0.52180  0.09581  0.49218  Biso   1.000  C
  H85      1.0000 0.49820  0.07210  0.54261  Biso   1.000  H
  H86      1.0000 0.49951  0.11380  0.54598  Biso   1.000  H
  H87      1.0000 0.46730  0.07009  0.47471  Biso   1.000  H
  H88      1.0000 0.46459  0.11581  0.47519  Biso   1.000  H
  H89      1.0000 0.53939  0.07470  0.48340  Biso   1.000  H
  H90      1.0000 0.53550  0.12021  0.48610  Biso   1.000  H
  C50      1.0000 0.51550  0.59729  0.50151  Biso   1.000  C
  C51      1.0000 0.49309  0.59680  0.45930  Biso   1.000  C
  N13      1.0000 0.55930  0.59840  0.49429  Biso   1.000  N
  H91      1.0000 0.50731  0.62001  0.51781  Biso   1.000  H
  H92      1.0000 0.50849  0.57420  0.51772  Biso   1.000  H
  N14      1.0000 0.44879  0.59269  0.46710  Biso   1.000  N
  H93      1.0000 0.49839  0.62079  0.44399  Biso   1.000  H
  H94      1.0000 0.50271  0.57519  0.44211  Biso   1.000  H
  H95      1.0000 0.56600  0.62161  0.48369  Biso   1.000  H
  H96      1.0000 0.56579  0.58050  0.47499  Biso   1.000  H
  C52      1.0000 0.58369  0.59129  0.53389  Biso   1.000  C
  C53      1.0000 0.42371  0.58680  0.42829  Biso   1.000  C
  H97      1.0000 0.44009  0.61409  0.48041  Biso   1.000  H
  H98      1.0000 0.44490  0.57260  0.48451  Biso   1.000  H
  C54      1.0000 0.58110  0.62441  0.56550  Biso   1.000  C
  H99      1.0000 0.61191  0.58729  0.52609  Biso   1.000  H
  H100     1.0000 0.57401  0.56761  0.54738  Biso   1.000  H
  C55      1.0000 0.42109  0.62251  0.40060  Biso   1.000  C
  H101     1.0000 0.39649  0.57919  0.43670  Biso   1.000  H
  H102     1.0000 0.43519  0.56560  0.41180  Biso   1.000  H
  C56      1.0000 0.55379  0.62359  0.59969  Biso   1.000  C
  C57      1.0000 0.60750  0.65619  0.56040  Biso   1.000  C
  C58      1.0000 0.44529  0.62540  0.36431  Biso   1.000  C
  C59      1.0000 0.39290  0.65120  0.40938  Biso   1.000  C
  C60      1.0000 0.55261  0.65499  0.62891  Biso   1.000  C
  H103     1.0000 0.53641  0.60240  0.60319  Biso   1.000  H
  H104     1.0000 0.62600  0.65680  0.53790  Biso   1.000  H
  C61      1.0000 0.60591  0.68669  0.58909  Biso   1.000  C
  C62      1.0000 0.44179  0.65841  0.33801  Biso   1.000  C
  H105     1.0000 0.46359  0.60569  0.35759  Biso   1.000  H
  H106     1.0000 0.37610  0.64870  0.43310  Biso   1.000  H
  C63      1.0000 0.38931  0.68389  0.38369  Biso   1.000  C
  C64      1.0000 0.57879  0.68599  0.62251  Biso   1.000  C
  C65      1.0000 0.52420  0.65491  0.66530  Biso   1.000  C
  C66      1.0000 0.63419  0.72150  0.58310  Biso   1.000  C
  C67      1.0000 0.41409  0.68721  0.34890  Biso   1.000  C
  C68      1.0000 0.46730  0.66231  0.29841  Biso   1.000  C
  C69      1.0000 0.35740  0.71471  0.39270  Biso   1.000  C
  H107     1.0000 0.57821  0.70689  0.64130  Biso   1.000  H
  N15      1.0000 0.48091  0.66150  0.65301  Biso   1.000  N
  H108     1.0000 0.53239  0.67511  0.68510  Biso   1.000  H
  H109     1.0000 0.52630  0.63001  0.67981  Biso   1.000  H
  N16      1.0000 0.61611  0.75060  0.55429  Biso   1.000  N
  H110     1.0000 0.63961  0.73351  0.61061  Biso   1.000  H
  H111     1.0000 0.65989  0.71261  0.57151  Biso   1.000  H
  H112     1.0000 0.41220  0.70940  0.33200  Biso   1.000  H
  N17      1.0000 0.51151  0.66651  0.30720  Biso   1.000  N
  H113     1.0000 0.46310  0.63960  0.28071  Biso   1.000  H
  H114     1.0000 0.45811  0.68500  0.28249  Biso   1.000  H
  N18      1.0000 0.37159  0.74229  0.42549  Biso   1.000  N
  H115     1.0000 0.35141  0.72879  0.36660  Biso   1.000  H
  H116     1.0000 0.33259  0.70220  0.40219  Biso   1.000  H
  H117     1.0000 0.47199  0.64091  0.63849  Biso   1.000  H
  H118     1.0000 0.46590  0.66339  0.67650  Biso   1.000  H
  C70      1.0000 0.47501  0.69680  0.62710  Biso   1.000  C
  H119     1.0000 0.59209  0.75809  0.56470  Biso   1.000  H
  H120     1.0000 0.61179  0.73969  0.52898  Biso   1.000  H
  C71      1.0000 0.64220  0.78541  0.54879  Biso   1.000  C
  H121     1.0000 0.52241  0.67319  0.28240  Biso   1.000  H
  H122     1.0000 0.52009  0.64240  0.31239  Biso   1.000  H
  C72      1.0000 0.53300  0.69129  0.33941  Biso   1.000  C
  H123     1.0000 0.52560  0.66881  0.28319  Biso   1.000  H
  H124     1.0000 0.52091  0.64619  0.32190  Biso   1.000  H
  C73      1.0000 0.51330  0.70409  0.33359  Biso   1.000  C
  H125     1.0000 0.39649  0.75051  0.41881  Biso   1.000  H
  H126     1.0000 0.37311  0.73001  0.45039  Biso   1.000  H
  C74      1.0000 0.34389  0.77701  0.42989  Biso   1.000  C
  C75      1.0000 0.43010  0.70150  0.61869  Biso   1.000  C
  H127     1.0000 0.48971  0.69430  0.60039  Biso   1.000  H
  H128     1.0000 0.48539  0.71940  0.64209  Biso   1.000  H
  C76      1.0000 0.64089  0.80010  0.50511  Biso   1.000  C
  H129     1.0000 0.63319  0.80570  0.56811  Biso   1.000  H
  H130     1.0000 0.67000  0.77879  0.55611  Biso   1.000  H
  C77      1.0000 0.55309  0.72281  0.32522  Biso   1.000  C
  H131     1.0000 0.51269  0.70001  0.35991  Biso   1.000  H
  H132     1.0000 0.55191  0.67491  0.35460  Biso   1.000  H
  H133     1.0000 0.51059  0.69809  0.36361  Biso   1.000  H
  H134     1.0000 0.49129  0.72141  0.32550  Biso   1.000  H
  C78      1.0000 0.35609  0.79999  0.46729  Biso   1.000  C
  H135     1.0000 0.34559  0.79290  0.40451  Biso   1.000  H
  H136     1.0000 0.31600  0.76821  0.43310  Biso   1.000  H
  N19      1.0000 0.42179  0.73771  0.59319  Biso   1.000  N
  H137     1.0000 0.42009  0.67890  0.60329  Biso   1.000  H
  H138     1.0000 0.41561  0.70290  0.64559  Biso   1.000  H
  N20      1.0000 0.66549  0.83640  0.49932  Biso   1.000  N
  H139     1.0000 0.61279  0.80541  0.49741  Biso   1.000  H
  H140     1.0000 0.65100  0.78010  0.48601  Biso   1.000  H
  N21      1.0000 0.56009  0.75579  0.35418  Biso   1.000  N
  H141     1.0000 0.53851  0.73270  0.30061  Biso   1.000  H
  H142     1.0000 0.57949  0.71401  0.31519  Biso   1.000  H
  H143     1.0000 0.57471  0.70380  0.32881  Biso   1.000  H
  H144     1.0000 0.55392  0.73200  0.29599  Biso   1.000  H
  N22      1.0000 0.32851  0.83311  0.47541  Biso   1.000  N
  H145     1.0000 0.38349  0.80981  0.46299  Biso   1.000  H
  H146     1.0000 0.35640  0.78319  0.49218  Biso   1.000  H
  C79      1.0000 0.42261  0.77521  0.61850  Biso   1.000  C
  H147     1.0000 0.39750  0.73529  0.58091  Biso   1.000  H
  H148     1.0000 0.44030  0.73931  0.57250  Biso   1.000  H
  C80      1.0000 0.67490  0.84629  0.45449  Biso   1.000  C
  H149     1.0000 0.65200  0.85620  0.51090  Biso   1.000  H
  H150     1.0000 0.68881  0.83369  0.51339  Biso   1.000  H
  H151     1.0000 0.56701  0.74660  0.37972  Biso   1.000  H
  H152     1.0000 0.53699  0.76911  0.35721  Biso   1.000  H
  C81      1.0000 0.59221  0.78261  0.33929  Biso   1.000  C
  H153     1.0000 0.30449  0.82830  0.46331  Biso   1.000  H
  H154     1.0000 0.33880  0.85439  0.46331  Biso   1.000  H
  C82      1.0000 0.32239  0.84031  0.52141  Biso   1.000  C
  C83      1.0000 0.41050  0.80929  0.59198  Biso   1.000  C
  H155     1.0000 0.40410  0.77290  0.64250  Biso   1.000  H
  H156     1.0000 0.44980  0.77940  0.62961  Biso   1.000  H
  C84      1.0000 0.63821  0.84690  0.42591  Biso   1.000  C
  H157     1.0000 0.69429  0.82751  0.44361  Biso   1.000  H
  H158     1.0000 0.68780  0.87180  0.45379  Biso   1.000  H
  C85      1.0000 0.59781  0.81570  0.37099  Biso   1.000  C
  H159     1.0000 0.58469  0.79319  0.31181  Biso   1.000  H
  H160     1.0000 0.61760  0.76850  0.33610  Biso   1.000  H
  C86      1.0000 0.36249  0.84049  0.54551  Biso   1.000  C
  H161     1.0000 0.30489  0.82031  0.53300  Biso   1.000  H
  H162     1.0000 0.30891  0.86530  0.52520  Biso   1.000  H
  C87      1.0000 0.37360  0.80990  0.56999  Biso   1.000  C
  C88      1.0000 0.43589  0.84200  0.58969  Biso   1.000  C
  C89      1.0000 0.63081  0.81570  0.39920  Biso   1.000  C
  C90      1.0000 0.61160  0.87839  0.42559  Biso   1.000  C
  C91      1.0000 0.57139  0.84769  0.37090  Biso   1.000  C
  C92      1.0000 0.38809  0.87361  0.54401  Biso   1.000  C
  H163     1.0000 0.35609  0.78870  0.57231  Biso   1.000  H
  C93      1.0000 0.42380  0.87469  0.56610  Biso   1.000  C
  H164     1.0000 0.46079  0.84200  0.60389  Biso   1.000  H
  H165     1.0000 0.64811  0.79419  0.39999  Biso   1.000  H
  C94      1.0000 0.57830  0.87789  0.39821  Biso   1.000  C
  H166     1.0000 0.61599  0.89959  0.44342  Biso   1.000  H
  H167     1.0000 0.54929  0.84830  0.35240  Biso   1.000  H
  H168     1.0000 0.38039  0.89501  0.52771  Biso   1.000  H
  C95      1.0000 0.44931  0.90999  0.56559  Biso   1.000  C
  C96      1.0000 0.54871  0.91320  0.39630  Biso   1.000  C
  N23      1.0000 0.48630  0.90711  0.53799  Biso   1.000  N
  H169     1.0000 0.45790  0.91580  0.59450  Biso   1.000  H
  H170     1.0000 0.43290  0.93180  0.55579  Biso   1.000  H
  N24      1.0000 0.51069  0.90530  0.42170  Biso   1.000  N
  H171     1.0000 0.56220  0.93621  0.40751  Biso   1.000  H
  H172     1.0000 0.54140  0.91839  0.36689  Biso   1.000  H
  H173     1.0000 0.50180  0.92790  0.54261  Biso   1.000  H
  H174     1.0000 0.50049  0.88620  0.54598  Biso   1.000  H
  C97      1.0000 0.47820  0.90419  0.49218  Biso   1.000  C
  H175     1.0000 0.49199  0.92309  0.41531  Biso   1.000  H
  H176     1.0000 0.50079  0.88209  0.41451  Biso   1.000  H
  C98      1.0000 0.51830  0.90609  0.46729  Biso   1.000  C
  H177     1.0000 0.46061  0.92530  0.48340  Biso   1.000  H
  H178     1.0000 0.46450  0.87979  0.48610  Biso   1.000  H
  H179     1.0000 0.53270  0.92991  0.47471  Biso   1.000  H
  H180     1.0000 0.53541  0.88419  0.47519  Biso   1.000  H
  C99      1.0000 0.39260  0.46469  0.64270  Biso   1.000  C
  C100     1.0000 0.36069  0.43390  0.63369  Biso   1.000  C
  N25      1.0000 0.37841  0.49230  0.67548  Biso   1.000  N
  H181     1.0000 0.39859  0.47880  0.61659  Biso   1.000  H
  H182     1.0000 0.41741  0.45221  0.65221  Biso   1.000  H
  C101     1.0000 0.33591  0.43720  0.59889  Biso   1.000  C
  C102     1.0000 0.35710  0.40119  0.65941  Biso   1.000  C
  H183     1.0000 0.35351  0.50050  0.66880  Biso   1.000  H
  H184     1.0000 0.37689  0.48000  0.70041  Biso   1.000  H
  C103     1.0000 0.40611  0.52700  0.67991  Biso   1.000  C
  C104     1.0000 0.30821  0.40839  0.58800  Biso   1.000  C
  H185     1.0000 0.33780  0.45941  0.58199  Biso   1.000  H
  C105     1.0000 0.32891  0.37250  0.65059  Biso   1.000  C
  H186     1.0000 0.37390  0.39871  0.68309  Biso   1.000  H
  C106     1.0000 0.39391  0.55000  0.71731  Biso   1.000  C
  H187     1.0000 0.40441  0.54289  0.65451  Biso   1.000  H
  H188     1.0000 0.43400  0.51819  0.68309  Biso   1.000  H
  C107     1.0000 0.28270  0.41230  0.54840  Biso   1.000  C
  C108     1.0000 0.30471  0.37539  0.61430  Biso   1.000  C
  C109     1.0000 0.32629  0.33681  0.67829  Biso   1.000  C
  N26      1.0000 0.42149  0.58310  0.72540  Biso   1.000  N
  H189     1.0000 0.36651  0.55980  0.71299  Biso   1.000  H
  H190     1.0000 0.39360  0.53321  0.74221  Biso   1.000  H
  N27      1.0000 0.23849  0.41650  0.55719  Biso   1.000  N
  H191     1.0000 0.28690  0.38961  0.53070  Biso   1.000  H
  H192     1.0000 0.29189  0.43501  0.53249  Biso   1.000  H
  H193     1.0000 0.28641  0.35571  0.60761  Biso   1.000  H
  N28      1.0000 0.30121  0.34270  0.71709  Biso   1.000  N
  H194     1.0000 0.35351  0.32920  0.68669  Biso   1.000  H
  H195     1.0000 0.31481  0.31559  0.66180  Biso   1.000  H
  H196     1.0000 0.44551  0.57831  0.71330  Biso   1.000  H
  H197     1.0000 0.41120  0.60441  0.71330  Biso   1.000  H
  C110     1.0000 0.42761  0.59030  0.77140  Biso   1.000  C
  H198     1.0000 0.22759  0.42320  0.53239  Biso   1.000  H
  H199     1.0000 0.22991  0.39241  0.56241  Biso   1.000  H
  C111     1.0000 0.21700  0.44131  0.58941  Biso   1.000  C
  H200     1.0000 0.22440  0.41880  0.53319  Biso   1.000  H
  H201     1.0000 0.22909  0.39620  0.57190  Biso   1.000  H
  C112     1.0000 0.23670  0.45411  0.58361  Biso   1.000  C
  H202     1.0000 0.30991  0.36410  0.73040  Biso   1.000  H
  H203     1.0000 0.30510  0.32261  0.73450  Biso   1.000  H
  C113     1.0000 0.25691  0.34681  0.70929  Biso   1.000  C
  C114     1.0000 0.38751  0.59050  0.79550  Biso   1.000  C
  H204     1.0000 0.44511  0.57030  0.78299  Biso   1.000  H
  H205     1.0000 0.44109  0.61531  0.77519  Biso   1.000  H
  C115     1.0000 0.19691  0.47280  0.57521  Biso   1.000  C
  H206     1.0000 0.23731  0.45000  0.60991  Biso   1.000  H
  H207     1.0000 0.19809  0.42489  0.60459  Biso   1.000  H
  H208     1.0000 0.23941  0.44810  0.61360  Biso   1.000  H
  H209     1.0000 0.25871  0.47140  0.57549  Biso   1.000  H
  C116     1.0000 0.23450  0.34731  0.75150  Biso   1.000  C
  H210     1.0000 0.25161  0.37081  0.69401  Biso   1.000  H
  H211     1.0000 0.24729  0.32521  0.69210  Biso   1.000  H
  C117     1.0000 0.36191  0.62359  0.79400  Biso   1.000  C
  C118     1.0000 0.37640  0.55989  0.82001  Biso   1.000  C
  N29      1.0000 0.18991  0.50580  0.60421  Biso   1.000  N
  H212     1.0000 0.21149  0.48271  0.55060  Biso   1.000  H
  H213     1.0000 0.17051  0.46399  0.56521  Biso   1.000  H
  H214     1.0000 0.17529  0.45379  0.57880  Biso   1.000  H
  H215     1.0000 0.19608  0.48201  0.54598  Biso   1.000  H
  N30      1.0000 0.19070  0.34839  0.74431  Biso   1.000  N
  H216     1.0000 0.24269  0.36999  0.76780  Biso   1.000  H
  H217     1.0000 0.24151  0.32419  0.76771  Biso   1.000  H
  C119     1.0000 0.32620  0.62470  0.81610  Biso   1.000  C
  H218     1.0000 0.36961  0.64499  0.77770  Biso   1.000  H
  C120     1.0000 0.33950  0.55930  0.84201  Biso   1.000  C
  H219     1.0000 0.39391  0.53869  0.82230  Biso   1.000  H
  H220     1.0000 0.18299  0.49659  0.62971  Biso   1.000  H
  H221     1.0000 0.21301  0.51910  0.60720  Biso   1.000  H
  C121     1.0000 0.15779  0.53260  0.58931  Biso   1.000  C
  H222     1.0000 0.18400  0.37160  0.73371  Biso   1.000  H
  H223     1.0000 0.18421  0.33049  0.72499  Biso   1.000  H
  C122     1.0000 0.16631  0.34130  0.78391  Biso   1.000  C
  C123     1.0000 0.31411  0.59199  0.83968  Biso   1.000  C
  C124     1.0000 0.30069  0.66001  0.81559  Biso   1.000  C
  C125     1.0000 0.32739  0.52519  0.86849  Biso   1.000  C
  C126     1.0000 0.15219  0.56569  0.62098  Biso   1.000  C
  H224     1.0000 0.16531  0.54321  0.56181  Biso   1.000  H
  H225     1.0000 0.13240  0.51851  0.58609  Biso   1.000  H
  C127     1.0000 0.16890  0.37440  0.81549  Biso   1.000  C
  H226     1.0000 0.13809  0.33731  0.77611  Biso   1.000  H
  H227     1.0000 0.17599  0.31760  0.79741  Biso   1.000  H
  H228     1.0000 0.28921  0.59199  0.85391  Biso   1.000  H
  N31      1.0000 0.26370  0.65709  0.78799  Biso   1.000  N
  H229     1.0000 0.29210  0.66581  0.84449  Biso   1.000  H
  H230     1.0000 0.31710  0.68179  0.80581  Biso   1.000  H
  N32      1.0000 0.32821  0.48770  0.84319  Biso   1.000  N
  H231     1.0000 0.34590  0.52289  0.89250  Biso   1.000  H
  H232     1.0000 0.30020  0.52939  0.87960  Biso   1.000  H
  C128     1.0000 0.11919  0.56569  0.64919  Biso   1.000  C
  C129     1.0000 0.17861  0.59770  0.62089  Biso   1.000  C
  C130     1.0000 0.19621  0.37361  0.84971  Biso   1.000  C
  C131     1.0000 0.14250  0.40620  0.81040  Biso   1.000  C
  C132     1.0000 0.27180  0.65421  0.74221  Biso   1.000  C
  H233     1.0000 0.24820  0.67791  0.79260  Biso   1.000  H
  H234     1.0000 0.24951  0.63619  0.79601  Biso   1.000  H
  H235     1.0000 0.35250  0.48531  0.83090  Biso   1.000  H
  H236     1.0000 0.30970  0.48930  0.82249  Biso   1.000  H
  C133     1.0000 0.31990  0.45151  0.86868  Biso   1.000  C
  C134     1.0000 0.11179  0.59689  0.67590  Biso   1.000  C
  H237     1.0000 0.10189  0.54420  0.64999  Biso   1.000  H
  H238     1.0000 0.20071  0.59829  0.60239  Biso   1.000  H
  C135     1.0000 0.17170  0.62791  0.64820  Biso   1.000  C
  C136     1.0000 0.19739  0.40501  0.87890  Biso   1.000  C
  H239     1.0000 0.21359  0.35241  0.85321  Biso   1.000  H
  H240     1.0000 0.12400  0.40679  0.78789  Biso   1.000  H
  C137     1.0000 0.14409  0.43670  0.83911  Biso   1.000  C
  C138     1.0000 0.23170  0.65610  0.71731  Biso   1.000  C
  H241     1.0000 0.28939  0.67529  0.73339  Biso   1.000  H
  H242     1.0000 0.28550  0.62980  0.73610  Biso   1.000  H
  C139     1.0000 0.27499  0.44679  0.87709  Biso   1.000  C
  H243     1.0000 0.32991  0.42889  0.85331  Biso   1.000  H
  H244     1.0000 0.33439  0.45291  0.89558  Biso   1.000  H
  C140     1.0000 0.13840  0.62840  0.67561  Biso   1.000  C
  C141     1.0000 0.07510  0.59630  0.70449  Biso   1.000  C
  C142     1.0000 0.20129  0.66319  0.64629  Biso   1.000  C
  C143     1.0000 0.17121  0.43600  0.87251  Biso   1.000  C
  C144     1.0000 0.22580  0.40489  0.91529  Biso   1.000  C
  C145     1.0000 0.11581  0.47151  0.83309  Biso   1.000  C
  N33      1.0000 0.23931  0.65529  0.67170  Biso   1.000  N
  H245     1.0000 0.21730  0.67989  0.72470  Biso   1.000  H
  H246     1.0000 0.21459  0.63421  0.72521  Biso   1.000  H
  N34      1.0000 0.26909  0.41151  0.90300  Biso   1.000  N
  H247     1.0000 0.26029  0.44431  0.85041  Biso   1.000  H
  H248     1.0000 0.26461  0.46939  0.89211  Biso   1.000  H
  H249     1.0000 0.13401  0.64960  0.69341  Biso   1.000  H
  N35      1.0000 0.08451  0.58639  0.74931  Biso   1.000  N
  H250     1.0000 0.05571  0.57750  0.69360  Biso   1.000  H
  H251     1.0000 0.06220  0.62179  0.70379  Biso   1.000  H
  H252     1.0000 0.18780  0.68619  0.65750  Biso   1.000  H
  H253     1.0000 0.20860  0.66841  0.61691  Biso   1.000  H
  H254     1.0000 0.17179  0.45691  0.89129  Biso   1.000  H
  H255     1.0000 0.21761  0.42510  0.93509  Biso   1.000  H
  H256     1.0000 0.22370  0.37999  0.92981  Biso   1.000  H
  N36      1.0000 0.13389  0.50061  0.80428  Biso   1.000  N
  H257     1.0000 0.11039  0.48350  0.86060  Biso   1.000  H
  H258     1.0000 0.09011  0.46259  0.82151  Biso   1.000  H
  H259     1.0000 0.25801  0.67310  0.66530  Biso   1.000  H
  H260     1.0000 0.24921  0.63211  0.66450  Biso   1.000  H
  H261     1.0000 0.27801  0.39090  0.88849  Biso   1.000  H
  H262     1.0000 0.28410  0.41341  0.92650  Biso   1.000  H
  H263     1.0000 0.09800  0.60619  0.76090  Biso   1.000  H
  H264     1.0000 0.06119  0.58371  0.76341  Biso   1.000  H
  C146     1.0000 0.10911  0.55009  0.75510  Biso   1.000  C
  C147     1.0000 0.10780  0.53540  0.79881  Biso   1.000  C
  H265     1.0000 0.15791  0.50811  0.81469  Biso   1.000  H
  H266     1.0000 0.13821  0.48971  0.77901  Biso   1.000  H
  H267     1.0000 0.13721  0.55540  0.74740  Biso   1.000  H
  H268     1.0000 0.09900  0.53009  0.73600  Biso   1.000  H
  H269     1.0000 0.11681  0.55569  0.81810  Biso   1.000  H
  H270     1.0000 0.08000  0.52881  0.80610  Biso   1.000  H
  C148     1.0000 0.60740  0.53531  0.64270  Biso   1.000  C
  N37      1.0000 0.62159  0.50770  0.67548  Biso   1.000  N
  C149     1.0000 0.63931  0.56610  0.63369  Biso   1.000  C
  H271     1.0000 0.60141  0.52120  0.61659  Biso   1.000  H
  H272     1.0000 0.58259  0.54779  0.65221  Biso   1.000  H
  C150     1.0000 0.59389  0.47300  0.67991  Biso   1.000  C
  H273     1.0000 0.64649  0.49950  0.66880  Biso   1.000  H
  H274     1.0000 0.62311  0.52000  0.70041  Biso   1.000  H
  C151     1.0000 0.64290  0.59881  0.65941  Biso   1.000  C
  C152     1.0000 0.66409  0.56280  0.59889  Biso   1.000  C
  C153     1.0000 0.60609  0.45000  0.71731  Biso   1.000  C
  H275     1.0000 0.59559  0.45711  0.65451  Biso   1.000  H
  H276     1.0000 0.56600  0.48181  0.68309  Biso   1.000  H
  C154     1.0000 0.67109  0.62750  0.65059  Biso   1.000  C
  H277     1.0000 0.62610  0.60129  0.68309  Biso   1.000  H
  C155     1.0000 0.69179  0.59161  0.58800  Biso   1.000  C
  H278     1.0000 0.66220  0.54059  0.58199  Biso   1.000  H
  N38      1.0000 0.57851  0.41690  0.72540  Biso   1.000  N
  H279     1.0000 0.63349  0.44020  0.71299  Biso   1.000  H
  H280     1.0000 0.60640  0.46679  0.74221  Biso   1.000  H
  C156     1.0000 0.69529  0.62461  0.61430  Biso   1.000  C
  C157     1.0000 0.67371  0.66319  0.67829  Biso   1.000  C
  C158     1.0000 0.71730  0.58770  0.54840  Biso   1.000  C
  H281     1.0000 0.55449  0.42169  0.71330  Biso   1.000  H
  H282     1.0000 0.58880  0.39559  0.71330  Biso   1.000  H
  C159     1.0000 0.57239  0.40970  0.77140  Biso   1.000  C
  H283     1.0000 0.71359  0.64429  0.60761  Biso   1.000  H
  N39      1.0000 0.69879  0.65730  0.71709  Biso   1.000  N
  H284     1.0000 0.64649  0.67080  0.68669  Biso   1.000  H
  H285     1.0000 0.68519  0.68441  0.66180  Biso   1.000  H
  N40      1.0000 0.76151  0.58350  0.55719  Biso   1.000  N
  H286     1.0000 0.71310  0.61039  0.53070  Biso   1.000  H
  H287     1.0000 0.70811  0.56499  0.53249  Biso   1.000  H
  C160     1.0000 0.61249  0.40950  0.79550  Biso   1.000  C
  H288     1.0000 0.55489  0.42970  0.78299  Biso   1.000  H
  H289     1.0000 0.55891  0.38469  0.77519  Biso   1.000  H
  H290     1.0000 0.69009  0.63590  0.73040  Biso   1.000  H
  H291     1.0000 0.69490  0.67739  0.73450  Biso   1.000  H
  C161     1.0000 0.74309  0.65319  0.70929  Biso   1.000  C
  H292     1.0000 0.77241  0.57680  0.53239  Biso   1.000  H
  H293     1.0000 0.77009  0.60759  0.56241  Biso   1.000  H
  C162     1.0000 0.78300  0.55869  0.58941  Biso   1.000  C
  H294     1.0000 0.77560  0.58120  0.53319  Biso   1.000  H
  H295     1.0000 0.77091  0.60380  0.57190  Biso   1.000  H
  C163     1.0000 0.76330  0.54589  0.58361  Biso   1.000  C
  C164     1.0000 0.63809  0.37641  0.79400  Biso   1.000  C
  C165     1.0000 0.62360  0.44011  0.82001  Biso   1.000  C
  C166     1.0000 0.76550  0.65269  0.75150  Biso   1.000  C
  H296     1.0000 0.74839  0.62919  0.69401  Biso   1.000  H
  H297     1.0000 0.75271  0.67479  0.69210  Biso   1.000  H
  C167     1.0000 0.80309  0.52720  0.57521  Biso   1.000  C
  H298     1.0000 0.76269  0.55000  0.60991  Biso   1.000  H
  H299     1.0000 0.80191  0.57511  0.60459  Biso   1.000  H
  H300     1.0000 0.76059  0.55190  0.61360  Biso   1.000  H
  H301     1.0000 0.74129  0.52860  0.57549  Biso   1.000  H
  C168     1.0000 0.67380  0.37530  0.81610  Biso   1.000  C
  H302     1.0000 0.63039  0.35501  0.77770  Biso   1.000  H
  C169     1.0000 0.66050  0.44070  0.84201  Biso   1.000  C
  H303     1.0000 0.60609  0.46131  0.82230  Biso   1.000  H
  N41      1.0000 0.80930  0.65161  0.74431  Biso   1.000  N
  H304     1.0000 0.75731  0.63001  0.76780  Biso   1.000  H
  H305     1.0000 0.75849  0.67581  0.76771  Biso   1.000  H
  N42      1.0000 0.81009  0.49420  0.60421  Biso   1.000  N
  H306     1.0000 0.78851  0.51729  0.55060  Biso   1.000  H
  H307     1.0000 0.82949  0.53601  0.56521  Biso   1.000  H
  H308     1.0000 0.82471  0.54621  0.57880  Biso   1.000  H
  H309     1.0000 0.80392  0.51799  0.54598  Biso   1.000  H
  C170     1.0000 0.68589  0.40801  0.83968  Biso   1.000  C
  C171     1.0000 0.69931  0.33999  0.81559  Biso   1.000  C
  C172     1.0000 0.67261  0.47481  0.86849  Biso   1.000  C
  H310     1.0000 0.81600  0.62840  0.73371  Biso   1.000  H
  H311     1.0000 0.81579  0.66951  0.72499  Biso   1.000  H
  C173     1.0000 0.83369  0.65870  0.78391  Biso   1.000  C
  H312     1.0000 0.81701  0.50341  0.62971  Biso   1.000  H
  H313     1.0000 0.78699  0.48090  0.60720  Biso   1.000  H
  C174     1.0000 0.84221  0.46740  0.58931  Biso   1.000  C
  H314     1.0000 0.71079  0.40801  0.85391  Biso   1.000  H
  N43      1.0000 0.73630  0.34291  0.78799  Biso   1.000  N
  H315     1.0000 0.70790  0.33419  0.84449  Biso   1.000  H
  H316     1.0000 0.68290  0.31821  0.80581  Biso   1.000  H
  N44      1.0000 0.67179  0.51230  0.84319  Biso   1.000  N
  H317     1.0000 0.65410  0.47711  0.89250  Biso   1.000  H
  H318     1.0000 0.69980  0.47061  0.87960  Biso   1.000  H
  C175     1.0000 0.83110  0.62560  0.81549  Biso   1.000  C
  H319     1.0000 0.86191  0.66269  0.77611  Biso   1.000  H
  H320     1.0000 0.82401  0.68240  0.79741  Biso   1.000  H
  C176     1.0000 0.84781  0.43431  0.62098  Biso   1.000  C
  H321     1.0000 0.83469  0.45679  0.56181  Biso   1.000  H
  H322     1.0000 0.86760  0.48149  0.58609  Biso   1.000  H
  H323     1.0000 0.75180  0.32209  0.79260  Biso   1.000  H
  H324     1.0000 0.75049  0.36381  0.79601  Biso   1.000  H
  C177     1.0000 0.72820  0.34579  0.74221  Biso   1.000  C
  H325     1.0000 0.64750  0.51469  0.83090  Biso   1.000  H
  H326     1.0000 0.69030  0.51070  0.82249  Biso   1.000  H
  C178     1.0000 0.68010  0.54849  0.86868  Biso   1.000  C
  C179     1.0000 0.80379  0.62639  0.84971  Biso   1.000  C
  C180     1.0000 0.85750  0.59380  0.81040  Biso   1.000  C
  C181     1.0000 0.88081  0.43431  0.64919  Biso   1.000  C
  C182     1.0000 0.82139  0.40230  0.62089  Biso   1.000  C
  H327     1.0000 0.71061  0.32471  0.73339  Biso   1.000  H
  H328     1.0000 0.71450  0.37020  0.73610  Biso   1.000  H
  C183     1.0000 0.76830  0.34390  0.71731  Biso   1.000  C
  H329     1.0000 0.67009  0.57111  0.85331  Biso   1.000  H
  H330     1.0000 0.66561  0.54709  0.89558  Biso   1.000  H
  C184     1.0000 0.72501  0.55321  0.87709  Biso   1.000  C
  C185     1.0000 0.80261  0.59499  0.87890  Biso   1.000  C
  H331     1.0000 0.78641  0.64759  0.85321  Biso   1.000  H
  H332     1.0000 0.87600  0.59321  0.78789  Biso   1.000  H
  C186     1.0000 0.85591  0.56330  0.83911  Biso   1.000  C
  C187     1.0000 0.88821  0.40311  0.67590  Biso   1.000  C
  H333     1.0000 0.89811  0.45580  0.64999  Biso   1.000  H
  C188     1.0000 0.82830  0.37209  0.64820  Biso   1.000  C
  H334     1.0000 0.79929  0.40171  0.60239  Biso   1.000  H
  N45      1.0000 0.76069  0.34471  0.67170  Biso   1.000  N
  H335     1.0000 0.78270  0.32011  0.72470  Biso   1.000  H
  H336     1.0000 0.78541  0.36579  0.72521  Biso   1.000  H
  N46      1.0000 0.73091  0.58849  0.90300  Biso   1.000  N
  H337     1.0000 0.73971  0.55569  0.85041  Biso   1.000  H
  H338     1.0000 0.73539  0.53061  0.89211  Biso   1.000  H
  C189     1.0000 0.77420  0.59511  0.91529  Biso   1.000  C
  C190     1.0000 0.82879  0.56400  0.87251  Biso   1.000  C
  C191     1.0000 0.88419  0.52849  0.83309  Biso   1.000  C
  C192     1.0000 0.86160  0.37160  0.67561  Biso   1.000  C
  C193     1.0000 0.92490  0.40370  0.70449  Biso   1.000  C
  C194     1.0000 0.79871  0.33681  0.64629  Biso   1.000  C
  H339     1.0000 0.74199  0.32690  0.66530  Biso   1.000  H
  H340     1.0000 0.75079  0.36789  0.66450  Biso   1.000  H
  H341     1.0000 0.72199  0.60910  0.88849  Biso   1.000  H
  H342     1.0000 0.71590  0.58659  0.92650  Biso   1.000  H
  H343     1.0000 0.78239  0.57490  0.93509  Biso   1.000  H
  H344     1.0000 0.77630  0.62001  0.92981  Biso   1.000  H
  H345     1.0000 0.82821  0.54309  0.89129  Biso   1.000  H
  N47      1.0000 0.86611  0.49939  0.80428  Biso   1.000  N
  H346     1.0000 0.88961  0.51650  0.86060  Biso   1.000  H
  H347     1.0000 0.90989  0.53741  0.82151  Biso   1.000  H
  H348     1.0000 0.86599  0.35040  0.69341  Biso   1.000  H
  N48      1.0000 0.91549  0.41361  0.74931  Biso   1.000  N
  H349     1.0000 0.94429  0.42250  0.69360  Biso   1.000  H
  H350     1.0000 0.93780  0.37821  0.70379  Biso   1.000  H
  H351     1.0000 0.81220  0.31381  0.65750  Biso   1.000  H
  H352     1.0000 0.79140  0.33159  0.61691  Biso   1.000  H
  H353     1.0000 0.84209  0.49189  0.81469  Biso   1.000  H
  H354     1.0000 0.86179  0.51029  0.77901  Biso   1.000  H
  C195     1.0000 0.89220  0.46460  0.79881  Biso   1.000  C
  H355     1.0000 0.90200  0.39381  0.76090  Biso   1.000  H
  H356     1.0000 0.93881  0.41629  0.76341  Biso   1.000  H
  C196     1.0000 0.89089  0.44991  0.75510  Biso   1.000  C
  H357     1.0000 0.88319  0.44431  0.81810  Biso   1.000  H
  H358     1.0000 0.92000  0.47119  0.80610  Biso   1.000  H
  H359     1.0000 0.86279  0.44460  0.74740  Biso   1.000  H
  H360     1.0000 0.90100  0.46991  0.73600  Biso   1.000  H
  C197     1.0000 0.38419  0.52849  0.33311  Biso   1.000  C
  N49      1.0000 0.36611  0.49939  0.30430  Biso   1.000  N
  C198     1.0000 0.35591  0.56330  0.33910  Biso   1.000  C
  H361     1.0000 0.38961  0.51650  0.36062  Biso   1.000  H
  H362     1.0000 0.40989  0.53741  0.32149  Biso   1.000  H
  C199     1.0000 0.39220  0.46460  0.29879  Biso   1.000  C
  H363     1.0000 0.34209  0.49189  0.31471  Biso   1.000  H
  H364     1.0000 0.36179  0.51029  0.27899  Biso   1.000  H
  C200     1.0000 0.35750  0.59380  0.31041  Biso   1.000  C
  C201     1.0000 0.32879  0.56400  0.37249  Biso   1.000  C
  C202     1.0000 0.39089  0.44991  0.25509  Biso   1.000  C
  H365     1.0000 0.38319  0.44431  0.31808  Biso   1.000  H
  H366     1.0000 0.42000  0.47119  0.30612  Biso   1.000  H
  C203     1.0000 0.33110  0.62560  0.31551  Biso   1.000  C
  H367     1.0000 0.37600  0.59321  0.28791  Biso   1.000  H
  C204     1.0000 0.30261  0.59499  0.37889  Biso   1.000  C
  H368     1.0000 0.32821  0.54309  0.39130  Biso   1.000  H
  N50      1.0000 0.41549  0.41361  0.24929  Biso   1.000  N
  H369     1.0000 0.36279  0.44460  0.24741  Biso   1.000  H
  H370     1.0000 0.40100  0.46991  0.23599  Biso   1.000  H
  C205     1.0000 0.30379  0.62639  0.34970  Biso   1.000  C
  C206     1.0000 0.33369  0.65870  0.28390  Biso   1.000  C
  C207     1.0000 0.27420  0.59511  0.41531  Biso   1.000  C
  C208     1.0000 0.42490  0.40370  0.20450  Biso   1.000  C
  H371     1.0000 0.40200  0.39381  0.26091  Biso   1.000  H
  H372     1.0000 0.43881  0.41629  0.26339  Biso   1.000  H
  H373     1.0000 0.28641  0.64759  0.35320  Biso   1.000  H
  N51      1.0000 0.30930  0.65161  0.24429  Biso   1.000  N
  H374     1.0000 0.36191  0.66269  0.27610  Biso   1.000  H
  H375     1.0000 0.32401  0.68240  0.29739  Biso   1.000  H
  N52      1.0000 0.23091  0.58849  0.40299  Biso   1.000  N
  H376     1.0000 0.28239  0.57490  0.43511  Biso   1.000  H
  H377     1.0000 0.27630  0.62001  0.42979  Biso   1.000  H
  C209     1.0000 0.38821  0.40311  0.17591  Biso   1.000  C
  H378     1.0000 0.44429  0.42250  0.19361  Biso   1.000  H
  H379     1.0000 0.43780  0.37821  0.20380  Biso   1.000  H
  H380     1.0000 0.31600  0.62840  0.23369  Biso   1.000  H
  H381     1.0000 0.31579  0.66951  0.22500  Biso   1.000  H
  C210     1.0000 0.26550  0.65269  0.25149  Biso   1.000  C
  C211     1.0000 0.22501  0.55321  0.37711  Biso   1.000  C
  H382     1.0000 0.22199  0.60910  0.38850  Biso   1.000  H
  H383     1.0000 0.21590  0.58659  0.42651  Biso   1.000  H
  C212     1.0000 0.36160  0.37160  0.17560  Biso   1.000  C
  C213     1.0000 0.38081  0.43431  0.14921  Biso   1.000  C
  C214     1.0000 0.24309  0.65319  0.20931  Biso   1.000  C
  H384     1.0000 0.25731  0.63001  0.26779  Biso   1.000  H
  H385     1.0000 0.25849  0.67581  0.26769  Biso   1.000  H
  C215     1.0000 0.18010  0.54849  0.36870  Biso   1.000  C
  H386     1.0000 0.23971  0.55569  0.35040  Biso   1.000  H
  H387     1.0000 0.23539  0.53061  0.39210  Biso   1.000  H
  C216     1.0000 0.32830  0.37209  0.14819  Biso   1.000  C
  H388     1.0000 0.36599  0.35040  0.19339  Biso   1.000  H
  C217     1.0000 0.34781  0.43431  0.12100  Biso   1.000  C
  H389     1.0000 0.39811  0.45580  0.15000  Biso   1.000  H
  N53      1.0000 0.19879  0.65730  0.21711  Biso   1.000  N
  H390     1.0000 0.24839  0.62919  0.19400  Biso   1.000  H
  H391     1.0000 0.25271  0.67479  0.19209  Biso   1.000  H
  N54      1.0000 0.17179  0.51230  0.34320  Biso   1.000  N
  H392     1.0000 0.17009  0.57111  0.35329  Biso   1.000  H
  H393     1.0000 0.16561  0.54709  0.39560  Biso   1.000  H
  C218     1.0000 0.29871  0.33681  0.14631  Biso   1.000  C
  C219     1.0000 0.32139  0.40230  0.12091  Biso   1.000  C
  C220     1.0000 0.34221  0.46740  0.08929  Biso   1.000  C
  C221     1.0000 0.17371  0.66319  0.17830  Biso   1.000  C
  H394     1.0000 0.19009  0.63590  0.23041  Biso   1.000  H
  H395     1.0000 0.19490  0.67739  0.23449  Biso   1.000  H
  C222     1.0000 0.17261  0.47481  0.36851  Biso   1.000  C
  H396     1.0000 0.14750  0.51469  0.33091  Biso   1.000  H
  H397     1.0000 0.19030  0.51070  0.32251  Biso   1.000  H
  N55      1.0000 0.26069  0.34471  0.17171  Biso   1.000  N
  H398     1.0000 0.31220  0.31381  0.15751  Biso   1.000  H
  H399     1.0000 0.29140  0.33159  0.11689  Biso   1.000  H
  H400     1.0000 0.29929  0.40171  0.10241  Biso   1.000  H
  N56      1.0000 0.31009  0.49420  0.10419  Biso   1.000  N
  H401     1.0000 0.33469  0.45679  0.06179  Biso   1.000  H
  H402     1.0000 0.36760  0.48149  0.08611  Biso   1.000  H
  C223     1.0000 0.17109  0.62750  0.15061  Biso   1.000  C
  H403     1.0000 0.14649  0.67080  0.18671  Biso   1.000  H
  H404     1.0000 0.18519  0.68441  0.16181  Biso   1.000  H
  C224     1.0000 0.16050  0.44070  0.34199  Biso   1.000  C
  H405     1.0000 0.15410  0.47711  0.39251  Biso   1.000  H
  H406     1.0000 0.19980  0.47061  0.37959  Biso   1.000  H
  C225     1.0000 0.26830  0.34390  0.21730  Biso   1.000  C
  H407     1.0000 0.24199  0.32690  0.16531  Biso   1.000  H
  H408     1.0000 0.25079  0.36789  0.16449  Biso   1.000  H
  H409     1.0000 0.31701  0.50341  0.12969  Biso   1.000  H
  H410     1.0000 0.28699  0.48090  0.10718  Biso   1.000  H
  C226     1.0000 0.30309  0.52720  0.07519  Biso   1.000  C
  C227     1.0000 0.19529  0.62461  0.11432  Biso   1.000  C
  C228     1.0000 0.14290  0.59881  0.15939  Biso   1.000  C
  C229     1.0000 0.18589  0.40801  0.33970  Biso   1.000  C
  C230     1.0000 0.12360  0.44011  0.31999  Biso   1.000  C
  C231     1.0000 0.22820  0.34579  0.24219  Biso   1.000  C
  H411     1.0000 0.28270  0.32011  0.22472  Biso   1.000  H
  H412     1.0000 0.28541  0.36579  0.22519  Biso   1.000  H
  H413     1.0000 0.28851  0.51729  0.05058  Biso   1.000  H
  H414     1.0000 0.32949  0.53601  0.06520  Biso   1.000  H
  C232     1.0000 0.28300  0.55869  0.08939  Biso   1.000  C
  H415     1.0000 0.32471  0.54621  0.07879  Biso   1.000  H
  H416     1.0000 0.30392  0.51799  0.04600  Biso   1.000  H
  C233     1.0000 0.26330  0.54589  0.08360  Biso   1.000  C
  C234     1.0000 0.19179  0.59161  0.08799  Biso   1.000  C
  H417     1.0000 0.21359  0.64429  0.10760  Biso   1.000  H
  C235     1.0000 0.13931  0.56610  0.13370  Biso   1.000  C
  H418     1.0000 0.12610  0.60129  0.18311  Biso   1.000  H
  C236     1.0000 0.17380  0.37530  0.31611  Biso   1.000  C
  H419     1.0000 0.21079  0.40801  0.35390  Biso   1.000  H
  C237     1.0000 0.11249  0.40950  0.29551  Biso   1.000  C
  H420     1.0000 0.10609  0.46131  0.32229  Biso   1.000  H
  N57      1.0000 0.23630  0.34291  0.28800  Biso   1.000  N
  H421     1.0000 0.21061  0.32471  0.23341  Biso   1.000  H
  H422     1.0000 0.21450  0.37020  0.23611  Biso   1.000  H
  N58      1.0000 0.26151  0.58350  0.05721  Biso   1.000  N
  H423     1.0000 0.26269  0.55000  0.10989  Biso   1.000  H
  H424     1.0000 0.30191  0.57511  0.10461  Biso   1.000  H
  H425     1.0000 0.26059  0.55190  0.11362  Biso   1.000  H
  H426     1.0000 0.24129  0.52860  0.07551  Biso   1.000  H
  C238     1.0000 0.21730  0.58770  0.04839  Biso   1.000  C
  C239     1.0000 0.16409  0.56280  0.09891  Biso   1.000  C
  C240     1.0000 0.10740  0.53531  0.14271  Biso   1.000  C
  C241     1.0000 0.19931  0.33999  0.31560  Biso   1.000  C
  C242     1.0000 0.13809  0.37641  0.29399  Biso   1.000  C
  C243     1.0000 0.07239  0.40970  0.27138  Biso   1.000  C
  H427     1.0000 0.25180  0.32209  0.29259  Biso   1.000  H
  H428     1.0000 0.25049  0.36381  0.29599  Biso   1.000  H
  H429     1.0000 0.27241  0.57680  0.03241  Biso   1.000  H
  H430     1.0000 0.27009  0.60759  0.06239  Biso   1.000  H
  H431     1.0000 0.27560  0.58120  0.03320  Biso   1.000  H
  H432     1.0000 0.27091  0.60380  0.07191  Biso   1.000  H
  H433     1.0000 0.21310  0.61039  0.03069  Biso   1.000  H
  H434     1.0000 0.20811  0.56499  0.03250  Biso   1.000  H
  H435     1.0000 0.16220  0.54059  0.08200  Biso   1.000  H
  N59      1.0000 0.12159  0.50770  0.17550  Biso   1.000  N
  H436     1.0000 0.10141  0.52120  0.11661  Biso   1.000  H
  H437     1.0000 0.08259  0.54779  0.15220  Biso   1.000  H
  H438     1.0000 0.20790  0.33419  0.34451  Biso   1.000  H
  H439     1.0000 0.18290  0.31821  0.30580  Biso   1.000  H
  H440     1.0000 0.13039  0.35501  0.27769  Biso   1.000  H
  N60      1.0000 0.07851  0.41690  0.22538  Biso   1.000  N
  H441     1.0000 0.05489  0.42970  0.28300  Biso   1.000  H
  H442     1.0000 0.05891  0.38469  0.27520  Biso   1.000  H
  C244     1.0000 0.09389  0.47300  0.17989  Biso   1.000  C
  H443     1.0000 0.14649  0.49950  0.16882  Biso   1.000  H
  H444     1.0000 0.12311  0.52000  0.20039  Biso   1.000  H
  H445     1.0000 0.05449  0.42169  0.21329  Biso   1.000  H
  H446     1.0000 0.08880  0.39559  0.21329  Biso   1.000  H
  C245     1.0000 0.10609  0.45000  0.21730  Biso   1.000  C
  H447     1.0000 0.09559  0.45711  0.15449  Biso   1.000  H
  H448     1.0000 0.06600  0.48181  0.18311  Biso   1.000  H
  H449     1.0000 0.13349  0.44020  0.21300  Biso   1.000  H
  H450     1.0000 0.10640  0.46679  0.24219  Biso   1.000  H
  C246     1.0000 0.61581  0.47151  0.33311  Biso   1.000  C
  C247     1.0000 0.64409  0.43670  0.33910  Biso   1.000  C
  N61      1.0000 0.63389  0.50061  0.30430  Biso   1.000  N
  H451     1.0000 0.61039  0.48350  0.36062  Biso   1.000  H
  H452     1.0000 0.59011  0.46259  0.32149  Biso   1.000  H
  C248     1.0000 0.64250  0.40620  0.31041  Biso   1.000  C
  C249     1.0000 0.67121  0.43600  0.37249  Biso   1.000  C
  H453     1.0000 0.65791  0.50811  0.31471  Biso   1.000  H
  H454     1.0000 0.63821  0.48971  0.27899  Biso   1.000  H
  C250     1.0000 0.60780  0.53540  0.29879  Biso   1.000  C
  C251     1.0000 0.66890  0.37440  0.31551  Biso   1.000  C
  H455     1.0000 0.62400  0.40679  0.28791  Biso   1.000  H
  C252     1.0000 0.69739  0.40501  0.37889  Biso   1.000  C
  H456     1.0000 0.67179  0.45691  0.39130  Biso   1.000  H
  C253     1.0000 0.60911  0.55009  0.25509  Biso   1.000  C
  H457     1.0000 0.61681  0.55569  0.31808  Biso   1.000  H
  H458     1.0000 0.58000  0.52881  0.30612  Biso   1.000  H
  C254     1.0000 0.66631  0.34130  0.28390  Biso   1.000  C
  C255     1.0000 0.69621  0.37361  0.34970  Biso   1.000  C
  C256     1.0000 0.72580  0.40489  0.41531  Biso   1.000  C
  N62      1.0000 0.58451  0.58639  0.24929  Biso   1.000  N
  H459     1.0000 0.63721  0.55540  0.24741  Biso   1.000  H
  H460     1.0000 0.59900  0.53009  0.23599  Biso   1.000  H
  N63      1.0000 0.69070  0.34839  0.24429  Biso   1.000  N
  H461     1.0000 0.63809  0.33731  0.27610  Biso   1.000  H
  H462     1.0000 0.67599  0.31760  0.29739  Biso   1.000  H
  H463     1.0000 0.71359  0.35241  0.35320  Biso   1.000  H
  N64      1.0000 0.76909  0.41151  0.40299  Biso   1.000  N
  H464     1.0000 0.71761  0.42510  0.43511  Biso   1.000  H
  H465     1.0000 0.72370  0.37999  0.42979  Biso   1.000  H
  H466     1.0000 0.59800  0.60619  0.26091  Biso   1.000  H
  H467     1.0000 0.56119  0.58371  0.26339  Biso   1.000  H
  C257     1.0000 0.57510  0.59630  0.20450  Biso   1.000  C
  H468     1.0000 0.68400  0.37160  0.23369  Biso   1.000  H
  H469     1.0000 0.68421  0.33049  0.22500  Biso   1.000  H
  C258     1.0000 0.73450  0.34731  0.25149  Biso   1.000  C
  H470     1.0000 0.77801  0.39090  0.38850  Biso   1.000  H
  H471     1.0000 0.78410  0.41341  0.42651  Biso   1.000  H
  C259     1.0000 0.77499  0.44679  0.37711  Biso   1.000  C
  C260     1.0000 0.61179  0.59689  0.17591  Biso   1.000  C
  H472     1.0000 0.55571  0.57750  0.19361  Biso   1.000  H
  H473     1.0000 0.56220  0.62179  0.20380  Biso   1.000  H
  H474     1.0000 0.74269  0.36999  0.26779  Biso   1.000  H
  H475     1.0000 0.74151  0.32419  0.26769  Biso   1.000  H
  C261     1.0000 0.75691  0.34681  0.20931  Biso   1.000  C
  C262     1.0000 0.81990  0.45151  0.36870  Biso   1.000  C
  H476     1.0000 0.76029  0.44431  0.35040  Biso   1.000  H
  H477     1.0000 0.76461  0.46939  0.39210  Biso   1.000  H
  C263     1.0000 0.61919  0.56569  0.14921  Biso   1.000  C
  C264     1.0000 0.63840  0.62840  0.17560  Biso   1.000  C
  N65      1.0000 0.80121  0.34270  0.21711  Biso   1.000  N
  H478     1.0000 0.75161  0.37081  0.19400  Biso   1.000  H
  H479     1.0000 0.74729  0.32521  0.19209  Biso   1.000  H
  N66      1.0000 0.82821  0.48770  0.34320  Biso   1.000  N
  H480     1.0000 0.82991  0.42889  0.35329  Biso   1.000  H
  H481     1.0000 0.83439  0.45291  0.39560  Biso   1.000  H
  H482     1.0000 0.60189  0.54420  0.15000  Biso   1.000  H
  C265     1.0000 0.65219  0.56569  0.12100  Biso   1.000  C
  C266     1.0000 0.67170  0.62791  0.14819  Biso   1.000  C
  H483     1.0000 0.63401  0.64960  0.19339  Biso   1.000  H
  H484     1.0000 0.80991  0.36410  0.23041  Biso   1.000  H
  H485     1.0000 0.80510  0.32261  0.23449  Biso   1.000  H
  C267     1.0000 0.82629  0.33681  0.17830  Biso   1.000  C
  H486     1.0000 0.85250  0.48531  0.33091  Biso   1.000  H
  H487     1.0000 0.80970  0.48930  0.32251  Biso   1.000  H
  C268     1.0000 0.82739  0.52519  0.36851  Biso   1.000  C
  C269     1.0000 0.67861  0.59770  0.12091  Biso   1.000  C
  C270     1.0000 0.65779  0.53260  0.08929  Biso   1.000  C
  C271     1.0000 0.70129  0.66319  0.14631  Biso   1.000  C
  C272     1.0000 0.82891  0.37250  0.15061  Biso   1.000  C
  H488     1.0000 0.85351  0.32920  0.18671  Biso   1.000  H
  H489     1.0000 0.81481  0.31559  0.16181  Biso   1.000  H
  C273     1.0000 0.83950  0.55930  0.34199  Biso   1.000  C
  H490     1.0000 0.84590  0.52289  0.39251  Biso   1.000  H
  H491     1.0000 0.80020  0.52939  0.37959  Biso   1.000  H
  H492     1.0000 0.70071  0.59829  0.10241  Biso   1.000  H
  N67      1.0000 0.68991  0.50580  0.10419  Biso   1.000  N
  H493     1.0000 0.66531  0.54321  0.06179  Biso   1.000  H
  H494     1.0000 0.63240  0.51851  0.08611  Biso   1.000  H
  N68      1.0000 0.73931  0.65529  0.17171  Biso   1.000  N
  H495     1.0000 0.68780  0.68619  0.15751  Biso   1.000  H
  H496     1.0000 0.70860  0.66841  0.11689  Biso   1.000  H
  C274     1.0000 0.80471  0.37539  0.11432  Biso   1.000  C
  C275     1.0000 0.85710  0.40119  0.15939  Biso   1.000  C
  C276     1.0000 0.81411  0.59199  0.33970  Biso   1.000  C
  C277     1.0000 0.87640  0.55989  0.31999  Biso   1.000  C
  C278     1.0000 0.69691  0.47280  0.07519  Biso   1.000  C
  H497     1.0000 0.68299  0.49659  0.12969  Biso   1.000  H
  H498     1.0000 0.71301  0.51910  0.10718  Biso   1.000  H
  H499     1.0000 0.75801  0.67310  0.16531  Biso   1.000  H
  H500     1.0000 0.74921  0.63211  0.16449  Biso   1.000  H
  C279     1.0000 0.73170  0.65610  0.21730  Biso   1.000  C
  C280     1.0000 0.80821  0.40839  0.08799  Biso   1.000  C
  H501     1.0000 0.78641  0.35571  0.10760  Biso   1.000  H
  H502     1.0000 0.87390  0.39871  0.18311  Biso   1.000  H
  C281     1.0000 0.86069  0.43390  0.13370  Biso   1.000  C
  H503     1.0000 0.78921  0.59199  0.35390  Biso   1.000  H
  C282     1.0000 0.82620  0.62470  0.31611  Biso   1.000  C
  C283     1.0000 0.88751  0.59050  0.29551  Biso   1.000  C
  H504     1.0000 0.89391  0.53869  0.32229  Biso   1.000  H
  C284     1.0000 0.71700  0.44131  0.08939  Biso   1.000  C
  C285     1.0000 0.73670  0.45411  0.08360  Biso   1.000  C
  H505     1.0000 0.71149  0.48271  0.05058  Biso   1.000  H
  H506     1.0000 0.67051  0.46399  0.06520  Biso   1.000  H
  H507     1.0000 0.67529  0.45379  0.07879  Biso   1.000  H
  H508     1.0000 0.69608  0.48201  0.04600  Biso   1.000  H
  C286     1.0000 0.77180  0.65421  0.24219  Biso   1.000  C
  H509     1.0000 0.71730  0.67989  0.22472  Biso   1.000  H
  H510     1.0000 0.71459  0.63421  0.22519  Biso   1.000  H
  C287     1.0000 0.83591  0.43720  0.09891  Biso   1.000  C
  C288     1.0000 0.78270  0.41230  0.04839  Biso   1.000  C
  C289     1.0000 0.89260  0.46469  0.14271  Biso   1.000  C
  C290     1.0000 0.86191  0.62359  0.29399  Biso   1.000  C
  C291     1.0000 0.80069  0.66001  0.31560  Biso   1.000  C
  C292     1.0000 0.92761  0.59030  0.27138  Biso   1.000  C
  N69      1.0000 0.73849  0.41650  0.05721  Biso   1.000  N
  H511     1.0000 0.73731  0.45000  0.10989  Biso   1.000  H
  H512     1.0000 0.69809  0.42489  0.10461  Biso   1.000  H
  H513     1.0000 0.73941  0.44810  0.11362  Biso   1.000  H
  H514     1.0000 0.75871  0.47140  0.07551  Biso   1.000  H
  N70      1.0000 0.76370  0.65709  0.28800  Biso   1.000  N
  H515     1.0000 0.78939  0.67529  0.23341  Biso   1.000  H
  H516     1.0000 0.78550  0.62980  0.23611  Biso   1.000  H
  H517     1.0000 0.83780  0.45941  0.08200  Biso   1.000  H
  H518     1.0000 0.78690  0.38961  0.03069  Biso   1.000  H
  H519     1.0000 0.79189  0.43501  0.03250  Biso   1.000  H
  N71      1.0000 0.87841  0.49230  0.17550  Biso   1.000  N
  H520     1.0000 0.89859  0.47880  0.11661  Biso   1.000  H
  H521     1.0000 0.91741  0.45221  0.15220  Biso   1.000  H
  H522     1.0000 0.86961  0.64499  0.27769  Biso   1.000  H
  H523     1.0000 0.79210  0.66581  0.34451  Biso   1.000  H
  H524     1.0000 0.81710  0.68179  0.30580  Biso   1.000  H
  N72      1.0000 0.92149  0.58310  0.22538  Biso   1.000  N
  H525     1.0000 0.94511  0.57030  0.28300  Biso   1.000  H
  H526     1.0000 0.94109  0.61531  0.27520  Biso   1.000  H
  H527     1.0000 0.72759  0.42320  0.03241  Biso   1.000  H
  H528     1.0000 0.72991  0.39241  0.06239  Biso   1.000  H
  H529     1.0000 0.72440  0.41880  0.03320  Biso   1.000  H
  H530     1.0000 0.72909  0.39620  0.07191  Biso   1.000  H
  H531     1.0000 0.74820  0.67791  0.29259  Biso   1.000  H
  H532     1.0000 0.74951  0.63619  0.29599  Biso   1.000  H
  H533     1.0000 0.85351  0.50050  0.16882  Biso   1.000  H
  H534     1.0000 0.87689  0.48000  0.20039  Biso   1.000  H
  C293     1.0000 0.90611  0.52700  0.17989  Biso   1.000  C
  C294     1.0000 0.89391  0.55000  0.21730  Biso   1.000  C
  H535     1.0000 0.94551  0.57831  0.21329  Biso   1.000  H
  H536     1.0000 0.91120  0.60441  0.21329  Biso   1.000  H
  H537     1.0000 0.90441  0.54289  0.15449  Biso   1.000  H
  H538     1.0000 0.93400  0.51819  0.18311  Biso   1.000  H
  H539     1.0000 0.86651  0.55980  0.21300  Biso   1.000  H
  H540     1.0000 0.89360  0.53321  0.24219  Biso   1.000  H
  C295     1.0000 0.54871  0.41320  0.89628  Biso   1.000  C
  C296     1.0000 0.57830  0.37789  0.89820  Biso   1.000  C
  N73      1.0000 0.51069  0.40530  0.92169  Biso   1.000  N
  H541     1.0000 0.56220  0.43621  0.90749  Biso   1.000  H
  H542     1.0000 0.54140  0.41839  0.86690  Biso   1.000  H
  C297     1.0000 0.57139  0.34769  0.87091  Biso   1.000  C
  C298     1.0000 0.61160  0.37839  0.92560  Biso   1.000  C
  H543     1.0000 0.49199  0.42309  0.91529  Biso   1.000  H
  H544     1.0000 0.50079  0.38209  0.91449  Biso   1.000  H
  C299     1.0000 0.51830  0.40609  0.96731  Biso   1.000  C
  C300     1.0000 0.59781  0.31570  0.87101  Biso   1.000  C
  H545     1.0000 0.54929  0.34830  0.85239  Biso   1.000  H
  C301     1.0000 0.63821  0.34690  0.92589  Biso   1.000  C
  H546     1.0000 0.61599  0.39959  0.94340  Biso   1.000  H
  C302     1.0000 0.47820  0.40419  0.99220  Biso   1.000  C
  H547     1.0000 0.53270  0.42991  0.97469  Biso   1.000  H
  H548     1.0000 0.53541  0.38419  0.97520  Biso   1.000  H
  C303     1.0000 0.59221  0.28261  0.83930  Biso   1.000  C
  C304     1.0000 0.63081  0.31570  0.89921  Biso   1.000  C
  C305     1.0000 0.67490  0.34629  0.95451  Biso   1.000  C
  H549     1.0000 0.46061  0.42530  0.98341  Biso   1.000  H
  H550     1.0000 0.46450  0.37979  0.98609  Biso   1.000  H
  N74      1.0000 0.48630  0.40711  0.03801  Biso   1.000  N
  N75      1.0000 0.56009  0.25579  0.85420  Biso   1.000  N
  H551     1.0000 0.58469  0.29319  0.81180  Biso   1.000  H
  H552     1.0000 0.61760  0.26850  0.83609  Biso   1.000  H
  H553     1.0000 0.64811  0.29419  0.90001  Biso   1.000  H
  N76      1.0000 0.66549  0.33640  0.99930  Biso   1.000  N
  H554     1.0000 0.69429  0.32751  0.94359  Biso   1.000  H
  H555     1.0000 0.68780  0.37180  0.95381  Biso   1.000  H
  C306     1.0000 0.44931  0.40999  0.06561  Biso   1.000  C
  H556     1.0000 0.50180  0.42790  0.04259  Biso   1.000  H
  H557     1.0000 0.50049  0.38620  0.04600  Biso   1.000  H
  C307     1.0000 0.55309  0.22281  0.82520  Biso   1.000  C
  H558     1.0000 0.56701  0.24660  0.87970  Biso   1.000  H
  H559     1.0000 0.53699  0.26911  0.85719  Biso   1.000  H
  H560     1.0000 0.65200  0.35620  0.01089  Biso   1.000  H
  H561     1.0000 0.68881  0.33369  0.01340  Biso   1.000  H
  C308     1.0000 0.64089  0.30010  0.00509  Biso   1.000  C
  C309     1.0000 0.42380  0.37469  0.06609  Biso   1.000  C
  H562     1.0000 0.45790  0.41580  0.09452  Biso   1.000  H
  H563     1.0000 0.43290  0.43180  0.05580  Biso   1.000  H
  C310     1.0000 0.53300  0.19129  0.83940  Biso   1.000  C
  C311     1.0000 0.51330  0.20409  0.83360  Biso   1.000  C
  H564     1.0000 0.53851  0.23270  0.80059  Biso   1.000  H
  H565     1.0000 0.57949  0.21401  0.81520  Biso   1.000  H
  H566     1.0000 0.57471  0.20380  0.82880  Biso   1.000  H
  H567     1.0000 0.55392  0.23200  0.79601  Biso   1.000  H
  H568     1.0000 0.61279  0.30541  0.99739  Biso   1.000  H
  H569     1.0000 0.65100  0.28010  0.98599  Biso   1.000  H
  C312     1.0000 0.64220  0.28541  0.04880  Biso   1.000  C
  C313     1.0000 0.38809  0.37361  0.04399  Biso   1.000  C
  C314     1.0000 0.43589  0.34200  0.08971  Biso   1.000  C
  N77      1.0000 0.51151  0.16651  0.80721  Biso   1.000  N
  H570     1.0000 0.51269  0.20001  0.85990  Biso   1.000  H
  H571     1.0000 0.55191  0.17491  0.85461  Biso   1.000  H
  H572     1.0000 0.51059  0.19809  0.86359  Biso   1.000  H
  H573     1.0000 0.49129  0.22141  0.82549  Biso   1.000  H
  N78      1.0000 0.61611  0.25060  0.05431  Biso   1.000  N
  H574     1.0000 0.63319  0.30570  0.06809  Biso   1.000  H
  H575     1.0000 0.67000  0.27879  0.05609  Biso   1.000  H
  C315     1.0000 0.36249  0.34049  0.04549  Biso   1.000  C
  H576     1.0000 0.38039  0.39501  0.02770  Biso   1.000  H
  C316     1.0000 0.41050  0.30929  0.09200  Biso   1.000  C
  H577     1.0000 0.46079  0.34200  0.10391  Biso   1.000  H
  C317     1.0000 0.46730  0.16231  0.79840  Biso   1.000  C
  H578     1.0000 0.52241  0.17319  0.78241  Biso   1.000  H
  H579     1.0000 0.52009  0.14240  0.81240  Biso   1.000  H
  H580     1.0000 0.52560  0.16881  0.78321  Biso   1.000  H
  H581     1.0000 0.52091  0.14619  0.82189  Biso   1.000  H
  C318     1.0000 0.63419  0.22150  0.08309  Biso   1.000  C
  H582     1.0000 0.59209  0.25809  0.06469  Biso   1.000  H
  H583     1.0000 0.61179  0.23969  0.02900  Biso   1.000  H
  C319     1.0000 0.32239  0.34031  0.02139  Biso   1.000  C
  C320     1.0000 0.37360  0.30990  0.07000  Biso   1.000  C
  C321     1.0000 0.42261  0.27521  0.11849  Biso   1.000  C
  C322     1.0000 0.44179  0.15841  0.83800  Biso   1.000  C
  H584     1.0000 0.46310  0.13960  0.78070  Biso   1.000  H
  H585     1.0000 0.45811  0.18500  0.78251  Biso   1.000  H
  C323     1.0000 0.60591  0.18669  0.08910  Biso   1.000  C
  H586     1.0000 0.63961  0.23351  0.11059  Biso   1.000  H
  H587     1.0000 0.65989  0.21261  0.07150  Biso   1.000  H
  N79      1.0000 0.32851  0.33311  0.97539  Biso   1.000  N
  H588     1.0000 0.30489  0.32031  0.03301  Biso   1.000  H
  H589     1.0000 0.30891  0.36530  0.02521  Biso   1.000  H
  H590     1.0000 0.35609  0.28870  0.07229  Biso   1.000  H
  N80      1.0000 0.42179  0.23771  0.09321  Biso   1.000  N
  H591     1.0000 0.40410  0.27290  0.14249  Biso   1.000  H
  H592     1.0000 0.44980  0.27940  0.12960  Biso   1.000  H
  C324     1.0000 0.44529  0.12540  0.86429  Biso   1.000  C
  C325     1.0000 0.41409  0.18721  0.84888  Biso   1.000  C
  C326     1.0000 0.60750  0.15619  0.06039  Biso   1.000  C
  C327     1.0000 0.57879  0.18599  0.12250  Biso   1.000  C
  C328     1.0000 0.35609  0.29999  0.96731  Biso   1.000  C
  H593     1.0000 0.30449  0.32830  0.96330  Biso   1.000  H
  H594     1.0000 0.33880  0.35439  0.96330  Biso   1.000  H
  H595     1.0000 0.39750  0.23529  0.08089  Biso   1.000  H
  H596     1.0000 0.44030  0.23931  0.07249  Biso   1.000  H
  C329     1.0000 0.43010  0.20150  0.11871  Biso   1.000  C
  H597     1.0000 0.46359  0.10569  0.85761  Biso   1.000  H
  C330     1.0000 0.42109  0.12251  0.90061  Biso   1.000  C
  C331     1.0000 0.38931  0.18389  0.88371  Biso   1.000  C
  H598     1.0000 0.41220  0.20940  0.83201  Biso   1.000  H
  C332     1.0000 0.58110  0.12441  0.06551  Biso   1.000  C
  H599     1.0000 0.62600  0.15680  0.03791  Biso   1.000  H
  C333     1.0000 0.55261  0.15499  0.12890  Biso   1.000  C
  H600     1.0000 0.57821  0.20689  0.14131  Biso   1.000  H
  C334     1.0000 0.34389  0.27701  0.92990  Biso   1.000  C
  H601     1.0000 0.38349  0.30981  0.96301  Biso   1.000  H
  H602     1.0000 0.35640  0.28319  0.99220  Biso   1.000  H
  C335     1.0000 0.47501  0.19680  0.12711  Biso   1.000  C
  H603     1.0000 0.42009  0.17890  0.10330  Biso   1.000  H
  H604     1.0000 0.41561  0.20290  0.14561  Biso   1.000  H
  C336     1.0000 0.39290  0.15120  0.90940  Biso   1.000  C
  C337     1.0000 0.42371  0.08680  0.92831  Biso   1.000  C
  C338     1.0000 0.35740  0.21471  0.89269  Biso   1.000  C
  C339     1.0000 0.58369  0.09129  0.03390  Biso   1.000  C
  C340     1.0000 0.55379  0.12359  0.09970  Biso   1.000  C
  C341     1.0000 0.52420  0.15491  0.16531  Biso   1.000  C
  N81      1.0000 0.37159  0.24229  0.92551  Biso   1.000  N
  H605     1.0000 0.34559  0.29290  0.90450  Biso   1.000  H
  H606     1.0000 0.31600  0.26821  0.93309  Biso   1.000  H
  N82      1.0000 0.48091  0.16150  0.15299  Biso   1.000  N
  H607     1.0000 0.48971  0.19430  0.10040  Biso   1.000  H
  H608     1.0000 0.48539  0.21940  0.14211  Biso   1.000  H
  H609     1.0000 0.37610  0.14870  0.93309  Biso   1.000  H
  N83      1.0000 0.44879  0.09269  0.96712  Biso   1.000  N
  H610     1.0000 0.39649  0.07919  0.93671  Biso   1.000  H
  H611     1.0000 0.43519  0.06560  0.91179  Biso   1.000  H
  H612     1.0000 0.35141  0.22879  0.86662  Biso   1.000  H
  H613     1.0000 0.33259  0.20220  0.90221  Biso   1.000  H
  N84      1.0000 0.55930  0.09840  0.99430  Biso   1.000  N
  H614     1.0000 0.61191  0.08729  0.02610  Biso   1.000  H
  H615     1.0000 0.57401  0.06761  0.04740  Biso   1.000  H
  H616     1.0000 0.53641  0.10240  0.10321  Biso   1.000  H
  H617     1.0000 0.53239  0.17511  0.18511  Biso   1.000  H
  H618     1.0000 0.52630  0.13001  0.17980  Biso   1.000  H
  H619     1.0000 0.39649  0.25051  0.91879  Biso   1.000  H
  H620     1.0000 0.37311  0.23001  0.95040  Biso   1.000  H
  H621     1.0000 0.47199  0.14091  0.13851  Biso   1.000  H
  H622     1.0000 0.46590  0.16339  0.17649  Biso   1.000  H
  H623     1.0000 0.44009  0.11409  0.98039  Biso   1.000  H
  H624     1.0000 0.44490  0.07260  0.98450  Biso   1.000  H
  C342     1.0000 0.49309  0.09680  0.95928  Biso   1.000  C
  C343     1.0000 0.51550  0.09729  0.00150  Biso   1.000  C
  H625     1.0000 0.56600  0.12161  0.98370  Biso   1.000  H
  H626     1.0000 0.56579  0.08050  0.97501  Biso   1.000  H
  H627     1.0000 0.49839  0.12079  0.94400  Biso   1.000  H
  H628     1.0000 0.50271  0.07519  0.94209  Biso   1.000  H
  H629     1.0000 0.50731  0.12001  0.01780  Biso   1.000  H
  H630     1.0000 0.50849  0.07420  0.01770  Biso   1.000  H
  C344     1.0000 0.17761  0.65969  0.52141  Biso   1.000  C
  C345     1.0000 0.13751  0.65951  0.54551  Biso   1.000  C
  N85      1.0000 0.17149  0.66689  0.47541  Biso   1.000  N
  H631     1.0000 0.19511  0.67969  0.53300  Biso   1.000  H
  H632     1.0000 0.19109  0.63470  0.52520  Biso   1.000  H
  C346     1.0000 0.11191  0.62639  0.54401  Biso   1.000  C
  C347     1.0000 0.12640  0.69010  0.56999  Biso   1.000  C
  H633     1.0000 0.19551  0.67170  0.46331  Biso   1.000  H
  H634     1.0000 0.16120  0.64561  0.46331  Biso   1.000  H
  C348     1.0000 0.14391  0.70001  0.46729  Biso   1.000  C
  C349     1.0000 0.07620  0.62531  0.56610  Biso   1.000  C
  H635     1.0000 0.11961  0.60499  0.52771  Biso   1.000  H
  C350     1.0000 0.08950  0.69071  0.59198  Biso   1.000  C
  H636     1.0000 0.14391  0.71130  0.57231  Biso   1.000  H
  H637     1.0000 0.11651  0.69019  0.46299  Biso   1.000  H
  H638     1.0000 0.14360  0.71681  0.49218  Biso   1.000  H
  C351     1.0000 0.15611  0.72299  0.42989  Biso   1.000  C
  C352     1.0000 0.05069  0.59001  0.56559  Biso   1.000  C
  C353     1.0000 0.06411  0.65800  0.58969  Biso   1.000  C
  C354     1.0000 0.07739  0.72479  0.61850  Biso   1.000  C
  N86      1.0000 0.12841  0.75771  0.42549  Biso   1.000  N
  H639     1.0000 0.15441  0.70710  0.40451  Biso   1.000  H
  H640     1.0000 0.18400  0.73179  0.43310  Biso   1.000  H
  N87      1.0000 0.01370  0.59289  0.53799  Biso   1.000  N
  H641     1.0000 0.04210  0.58420  0.59450  Biso   1.000  H
  H642     1.0000 0.06710  0.56820  0.55579  Biso   1.000  H
  H643     1.0000 0.03921  0.65800  0.60389  Biso   1.000  H
  N88      1.0000 0.07821  0.76229  0.59319  Biso   1.000  N
  H644     1.0000 0.09590  0.72710  0.64250  Biso   1.000  H
  H645     1.0000 0.05020  0.72060  0.62961  Biso   1.000  H
  H646     1.0000 0.10351  0.74949  0.41881  Biso   1.000  H
  H647     1.0000 0.12689  0.76999  0.45039  Biso   1.000  H
  C355     1.0000 0.14260  0.78529  0.39270  Biso   1.000  C
  C356     1.0000 0.02180  0.59581  0.49218  Biso   1.000  C
  H648     1.0000 0.99820  0.57210  0.54261  Biso   1.000  H
  H649     1.0000 0.99951  0.61380  0.54598  Biso   1.000  H
  H650     1.0000 0.10250  0.76471  0.58091  Biso   1.000  H
  H651     1.0000 0.05970  0.76069  0.57250  Biso   1.000  H
  C357     1.0000 0.06990  0.79850  0.61869  Biso   1.000  C
  C358     1.0000 0.11069  0.81611  0.38369  Biso   1.000  C
  H652     1.0000 0.14859  0.77121  0.36660  Biso   1.000  H
  H653     1.0000 0.16741  0.79780  0.40219  Biso   1.000  H
  H654     1.0000 0.03939  0.57470  0.48340  Biso   1.000  H
  H655     1.0000 0.03550  0.62021  0.48610  Biso   1.000  H
  C359     1.0000 0.98170  0.59391  0.46729  Biso   1.000  C
  H656     1.0000 0.07991  0.82110  0.60329  Biso   1.000  H
  H657     1.0000 0.08439  0.79710  0.64559  Biso   1.000  H
  C360     1.0000 0.02499  0.80320  0.62710  Biso   1.000  C
  C361     1.0000 0.10710  0.84880  0.40938  Biso   1.000  C
  C362     1.0000 0.08591  0.81279  0.34890  Biso   1.000  C
  N89      1.0000 0.98931  0.59470  0.42170  Biso   1.000  N
  H658     1.0000 0.96730  0.57009  0.47471  Biso   1.000  H
  H659     1.0000 0.96459  0.61581  0.47519  Biso   1.000  H
  N90      1.0000 0.01909  0.83850  0.65301  Biso   1.000  N
  H660     1.0000 0.01029  0.80570  0.60039  Biso   1.000  H
  H661     1.0000 0.01461  0.78060  0.64209  Biso   1.000  H
  C363     1.0000 0.07891  0.87749  0.40060  Biso   1.000  C
  H662     1.0000 0.12390  0.85130  0.43310  Biso   1.000  H
  C364     1.0000 0.05821  0.84159  0.33801  Biso   1.000  C
  H663     1.0000 0.08780  0.79060  0.33200  Biso   1.000  H
  H664     1.0000 0.00801  0.57691  0.41531  Biso   1.000  H
  H665     1.0000 0.99921  0.61791  0.41451  Biso   1.000  H
  C365     1.0000 0.95129  0.58680  0.39630  Biso   1.000  C
  H666     1.0000 0.02801  0.85909  0.63849  Biso   1.000  H
  H667     1.0000 0.03410  0.83661  0.67650  Biso   1.000  H
  C366     1.0000 0.97580  0.84509  0.66530  Biso   1.000  C
  C367     1.0000 0.05471  0.87460  0.36431  Biso   1.000  C
  C368     1.0000 0.07629  0.91320  0.42829  Biso   1.000  C
  C369     1.0000 0.03270  0.83769  0.29841  Biso   1.000  C
  C370     1.0000 0.92170  0.62211  0.39821  Biso   1.000  C
  H668     1.0000 0.93780  0.56379  0.40751  Biso   1.000  H
  H669     1.0000 0.95860  0.58161  0.36689  Biso   1.000  H
  C371     1.0000 0.94739  0.84501  0.62891  Biso   1.000  C
  H670     1.0000 0.96761  0.82489  0.68510  Biso   1.000  H
  H671     1.0000 0.97370  0.86999  0.67981  Biso   1.000  H
  H672     1.0000 0.03641  0.89431  0.35759  Biso   1.000  H
  N91      1.0000 0.05121  0.90731  0.46710  Biso   1.000  N
  H673     1.0000 0.10351  0.92081  0.43670  Biso   1.000  H
  H674     1.0000 0.06481  0.93440  0.41180  Biso   1.000  H
  N92      1.0000 0.98849  0.83349  0.30720  Biso   1.000  N
  H675     1.0000 0.03690  0.86040  0.28071  Biso   1.000  H
  H676     1.0000 0.04189  0.81500  0.28249  Biso   1.000  H
  C372     1.0000 0.92861  0.65231  0.37090  Biso   1.000  C
  C373     1.0000 0.88840  0.62161  0.42559  Biso   1.000  C
  C374     1.0000 0.94621  0.87641  0.59969  Biso   1.000  C
  C375     1.0000 0.92121  0.81401  0.62251  Biso   1.000  C
  H677     1.0000 0.05991  0.88591  0.48041  Biso   1.000  H
  H678     1.0000 0.05510  0.92740  0.48451  Biso   1.000  H
  C376     1.0000 0.00691  0.90320  0.45930  Biso   1.000  C
  C377     1.0000 0.96700  0.80871  0.33941  Biso   1.000  C
  C378     1.0000 0.98670  0.79591  0.33359  Biso   1.000  C
  H679     1.0000 0.97759  0.82681  0.28240  Biso   1.000  H
  H680     1.0000 0.97991  0.85760  0.31239  Biso   1.000  H
  H681     1.0000 0.97440  0.83119  0.28319  Biso   1.000  H
  H682     1.0000 0.97909  0.85381  0.32190  Biso   1.000  H
  C379     1.0000 0.90219  0.68430  0.37099  Biso   1.000  C
  H683     1.0000 0.95071  0.65170  0.35240  Biso   1.000  H
  C380     1.0000 0.86179  0.65310  0.42591  Biso   1.000  C
  H684     1.0000 0.88401  0.60041  0.44342  Biso   1.000  H
  H685     1.0000 0.96359  0.89760  0.60319  Biso   1.000  H
  C381     1.0000 0.91890  0.87559  0.56550  Biso   1.000  C
  C382     1.0000 0.89409  0.81331  0.58909  Biso   1.000  C
  H686     1.0000 0.92179  0.79311  0.64130  Biso   1.000  H
  C383     1.0000 0.98450  0.90271  0.50151  Biso   1.000  C
  H687     1.0000 0.00161  0.87921  0.44399  Biso   1.000  H
  H688     1.0000 0.99729  0.92481  0.44211  Biso   1.000  H
  C384     1.0000 0.94691  0.77719  0.32522  Biso   1.000  C
  H689     1.0000 0.98731  0.79999  0.35991  Biso   1.000  H
  H690     1.0000 0.94809  0.82509  0.35460  Biso   1.000  H
  H691     1.0000 0.98941  0.80191  0.36361  Biso   1.000  H
  H692     1.0000 0.00871  0.77859  0.32550  Biso   1.000  H
  C385     1.0000 0.86919  0.68430  0.39920  Biso   1.000  C
  C386     1.0000 0.90779  0.71739  0.33929  Biso   1.000  C
  C387     1.0000 0.82510  0.65371  0.45449  Biso   1.000  C
  C388     1.0000 0.89250  0.84381  0.56040  Biso   1.000  C
  C389     1.0000 0.91631  0.90871  0.53389  Biso   1.000  C
  C390     1.0000 0.86581  0.77850  0.58310  Biso   1.000  C
  N93      1.0000 0.94070  0.90160  0.49429  Biso   1.000  N
  H693     1.0000 0.99269  0.87999  0.51781  Biso   1.000  H
  H694     1.0000 0.99151  0.92580  0.51772  Biso   1.000  H
  N94      1.0000 0.93991  0.74421  0.35418  Biso   1.000  N
  H695     1.0000 0.96149  0.76730  0.30061  Biso   1.000  H
  H696     1.0000 0.92051  0.78599  0.31519  Biso   1.000  H
  H697     1.0000 0.92529  0.79620  0.32881  Biso   1.000  H
  H698     1.0000 0.94608  0.76800  0.29599  Biso   1.000  H
  H699     1.0000 0.85189  0.70581  0.39999  Biso   1.000  H
  H700     1.0000 0.91531  0.70681  0.31181  Biso   1.000  H
  H701     1.0000 0.88240  0.73150  0.33610  Biso   1.000  H
  N95      1.0000 0.83451  0.66360  0.49932  Biso   1.000  N
  H702     1.0000 0.80571  0.67249  0.44361  Biso   1.000  H
  H703     1.0000 0.81220  0.62820  0.45379  Biso   1.000  H
  H704     1.0000 0.87400  0.84320  0.53790  Biso   1.000  H
  H705     1.0000 0.88809  0.91271  0.52609  Biso   1.000  H
  H706     1.0000 0.92599  0.93239  0.54738  Biso   1.000  H
  N96      1.0000 0.88389  0.74940  0.55429  Biso   1.000  N
  H707     1.0000 0.86039  0.76649  0.61061  Biso   1.000  H
  H708     1.0000 0.84011  0.78739  0.57151  Biso   1.000  H
  H709     1.0000 0.93400  0.87839  0.48369  Biso   1.000  H
  H710     1.0000 0.93421  0.91950  0.47499  Biso   1.000  H
  H711     1.0000 0.93299  0.75340  0.37972  Biso   1.000  H
  H712     1.0000 0.96301  0.73089  0.35721  Biso   1.000  H
  H713     1.0000 0.84800  0.64380  0.51090  Biso   1.000  H
  H714     1.0000 0.81119  0.66631  0.51339  Biso   1.000  H
  C391     1.0000 0.85911  0.69990  0.50511  Biso   1.000  C
  C392     1.0000 0.85780  0.71459  0.54879  Biso   1.000  C
  H715     1.0000 0.90791  0.74191  0.56470  Biso   1.000  H
  H716     1.0000 0.88821  0.76031  0.52898  Biso   1.000  H
  H717     1.0000 0.88721  0.69459  0.49741  Biso   1.000  H
  H718     1.0000 0.84900  0.71990  0.48601  Biso   1.000  H
  H719     1.0000 0.86681  0.69430  0.56811  Biso   1.000  H
  H720     1.0000 0.83000  0.72121  0.55611  Biso   1.000  H
  C393     1.0000 0.45129  0.58680  0.89628  Biso   1.000  C
  N97      1.0000 0.48931  0.59470  0.92169  Biso   1.000  N
  C394     1.0000 0.42170  0.62211  0.89820  Biso   1.000  C
  H721     1.0000 0.43780  0.56379  0.90749  Biso   1.000  H
  H722     1.0000 0.45860  0.58161  0.86690  Biso   1.000  H
  H723     1.0000 0.50801  0.57691  0.91529  Biso   1.000  H
  H724     1.0000 0.49921  0.61791  0.91449  Biso   1.000  H
  C395     1.0000 0.48170  0.59391  0.96731  Biso   1.000  C
  C396     1.0000 0.42861  0.65231  0.87091  Biso   1.000  C
  C397     1.0000 0.38840  0.62161  0.92560  Biso   1.000  C
  C398     1.0000 0.52180  0.59581  0.99220  Biso   1.000  C
  H725     1.0000 0.46730  0.57009  0.97469  Biso   1.000  H
  H726     1.0000 0.46459  0.61581  0.97520  Biso   1.000  H
  C399     1.0000 0.40219  0.68430  0.87101  Biso   1.000  C
  H727     1.0000 0.45071  0.65170  0.85239  Biso   1.000  H
  C400     1.0000 0.36179  0.65310  0.92589  Biso   1.000  C
  H728     1.0000 0.38401  0.60041  0.94340  Biso   1.000  H
  H729     1.0000 0.53939  0.57470  0.98341  Biso   1.000  H
  H730     1.0000 0.53550  0.62021  0.98609  Biso   1.000  H
  N98      1.0000 0.51370  0.59289  0.03801  Biso   1.000  N
  C401     1.0000 0.36919  0.68430  0.89921  Biso   1.000  C
  C402     1.0000 0.40779  0.71739  0.83930  Biso   1.000  C
  C403     1.0000 0.32510  0.65371  0.95451  Biso   1.000  C
  H731     1.0000 0.49820  0.57210  0.04259  Biso   1.000  H
  H732     1.0000 0.49951  0.61380  0.04600  Biso   1.000  H
  C404     1.0000 0.55069  0.59001  0.06561  Biso   1.000  C
  H733     1.0000 0.35189  0.70581  0.90001  Biso   1.000  H
  N99      1.0000 0.43991  0.74421  0.85420  Biso   1.000  N
  H734     1.0000 0.41531  0.70681  0.81180  Biso   1.000  H
  H735     1.0000 0.38240  0.73150  0.83609  Biso   1.000  H
  N100     1.0000 0.33451  0.66360  0.99930  Biso   1.000  N
  H736     1.0000 0.30571  0.67249  0.94359  Biso   1.000  H
  H737     1.0000 0.31220  0.62820  0.95381  Biso   1.000  H
  C405     1.0000 0.57620  0.62531  0.06609  Biso   1.000  C
  H738     1.0000 0.54210  0.58420  0.09452  Biso   1.000  H
  H739     1.0000 0.56710  0.56820  0.05580  Biso   1.000  H
  H740     1.0000 0.43299  0.75340  0.87970  Biso   1.000  H
  H741     1.0000 0.46301  0.73089  0.85719  Biso   1.000  H
  C406     1.0000 0.44691  0.77719  0.82520  Biso   1.000  C
  H742     1.0000 0.34800  0.64380  0.01089  Biso   1.000  H
  H743     1.0000 0.31119  0.66631  0.01340  Biso   1.000  H
  C407     1.0000 0.35911  0.69990  0.00509  Biso   1.000  C
  C408     1.0000 0.56411  0.65800  0.08971  Biso   1.000  C
  C409     1.0000 0.61191  0.62639  0.04399  Biso   1.000  C
  H744     1.0000 0.46149  0.76730  0.80059  Biso   1.000  H
  H745     1.0000 0.42051  0.78599  0.81520  Biso   1.000  H
  C410     1.0000 0.46700  0.80871  0.83940  Biso   1.000  C
  H746     1.0000 0.42529  0.79620  0.82880  Biso   1.000  H
  H747     1.0000 0.44608  0.76800  0.79601  Biso   1.000  H
  C411     1.0000 0.48670  0.79591  0.83360  Biso   1.000  C
  H748     1.0000 0.38721  0.69459  0.99739  Biso   1.000  H
  H749     1.0000 0.34900  0.71990  0.98599  Biso   1.000  H
  C412     1.0000 0.35780  0.71459  0.04880  Biso   1.000  C
  C413     1.0000 0.58950  0.69071  0.09200  Biso   1.000  C
  H750     1.0000 0.53921  0.65800  0.10391  Biso   1.000  H
  H751     1.0000 0.61961  0.60499  0.02770  Biso   1.000  H
  C414     1.0000 0.63751  0.65951  0.04549  Biso   1.000  C
  N101     1.0000 0.48849  0.83349  0.80721  Biso   1.000  N
  H752     1.0000 0.48731  0.79999  0.85990  Biso   1.000  H
  H753     1.0000 0.44809  0.82509  0.85461  Biso   1.000  H
  H754     1.0000 0.48941  0.80191  0.86359  Biso   1.000  H
  H755     1.0000 0.50871  0.77859  0.82549  Biso   1.000  H
  N102     1.0000 0.38389  0.74940  0.05431  Biso   1.000  N
  H756     1.0000 0.36681  0.69430  0.06809  Biso   1.000  H
  H757     1.0000 0.33000  0.72121  0.05609  Biso   1.000  H
  C415     1.0000 0.62640  0.69010  0.07000  Biso   1.000  C
  C416     1.0000 0.57739  0.72479  0.11849  Biso   1.000  C
  C417     1.0000 0.67761  0.65969  0.02139  Biso   1.000  C
  H758     1.0000 0.47759  0.82681  0.78241  Biso   1.000  H
  H759     1.0000 0.47991  0.85760  0.81240  Biso   1.000  H
  C418     1.0000 0.53270  0.83769  0.79840  Biso   1.000  C
  H760     1.0000 0.47440  0.83119  0.78321  Biso   1.000  H
  H761     1.0000 0.47909  0.85381  0.82189  Biso   1.000  H
  H762     1.0000 0.40791  0.74191  0.06469  Biso   1.000  H
  H763     1.0000 0.38821  0.76031  0.02900  Biso   1.000  H
  C419     1.0000 0.36581  0.77850  0.08309  Biso   1.000  C
  H764     1.0000 0.64391  0.71130  0.07229  Biso   1.000  H
  N103     1.0000 0.57821  0.76229  0.09321  Biso   1.000  N
  H765     1.0000 0.59590  0.72710  0.14249  Biso   1.000  H
  H766     1.0000 0.55020  0.72060  0.12960  Biso   1.000  H
  N104     1.0000 0.67149  0.66689  0.97539  Biso   1.000  N
  H767     1.0000 0.69511  0.67969  0.03301  Biso   1.000  H
  H768     1.0000 0.69109  0.63470  0.02521  Biso   1.000  H
  C420     1.0000 0.55821  0.84159  0.83800  Biso   1.000  C
  H769     1.0000 0.53690  0.86040  0.78070  Biso   1.000  H
  H770     1.0000 0.54189  0.81500  0.78251  Biso   1.000  H
  C421     1.0000 0.39409  0.81331  0.08910  Biso   1.000  C
  H771     1.0000 0.36039  0.76649  0.11059  Biso   1.000  H
  H772     1.0000 0.34011  0.78739  0.07150  Biso   1.000  H
  H773     1.0000 0.60250  0.76471  0.08089  Biso   1.000  H
  H774     1.0000 0.55970  0.76069  0.07249  Biso   1.000  H
  C422     1.0000 0.56990  0.79850  0.11871  Biso   1.000  C
  H775     1.0000 0.69551  0.67170  0.96330  Biso   1.000  H
  H776     1.0000 0.66120  0.64561  0.96330  Biso   1.000  H
  C423     1.0000 0.64391  0.70001  0.96731  Biso   1.000  C
  C424     1.0000 0.55471  0.87460  0.86429  Biso   1.000  C
  C425     1.0000 0.58591  0.81279  0.84888  Biso   1.000  C
  C426     1.0000 0.39250  0.84381  0.06039  Biso   1.000  C
  C427     1.0000 0.42121  0.81401  0.12250  Biso   1.000  C
  H777     1.0000 0.57991  0.82110  0.10330  Biso   1.000  H
  H778     1.0000 0.58439  0.79710  0.14561  Biso   1.000  H
  C428     1.0000 0.52499  0.80320  0.12711  Biso   1.000  C
  H779     1.0000 0.61651  0.69019  0.96301  Biso   1.000  H
  H780     1.0000 0.64360  0.71681  0.99220  Biso   1.000  H
  C429     1.0000 0.65611  0.72299  0.92990  Biso   1.000  C
  H781     1.0000 0.53641  0.89431  0.85761  Biso   1.000  H
  C430     1.0000 0.57891  0.87749  0.90061  Biso   1.000  C
  C431     1.0000 0.61069  0.81611  0.88371  Biso   1.000  C
  H782     1.0000 0.58780  0.79060  0.83201  Biso   1.000  H
  C432     1.0000 0.41890  0.87559  0.06551  Biso   1.000  C
  H783     1.0000 0.37400  0.84320  0.03791  Biso   1.000  H
  C433     1.0000 0.44739  0.84501  0.12890  Biso   1.000  C
  H784     1.0000 0.42179  0.79311  0.14131  Biso   1.000  H
  N105     1.0000 0.51909  0.83850  0.15299  Biso   1.000  N
  H785     1.0000 0.51029  0.80570  0.10040  Biso   1.000  H
  H786     1.0000 0.51461  0.78060  0.14211  Biso   1.000  H
  N106     1.0000 0.62841  0.75771  0.92551  Biso   1.000  N
  H787     1.0000 0.65441  0.70710  0.90450  Biso   1.000  H
  H788     1.0000 0.68400  0.73179  0.93309  Biso   1.000  H
  C434     1.0000 0.60710  0.84880  0.90940  Biso   1.000  C
  C435     1.0000 0.57629  0.91320  0.92831  Biso   1.000  C
  C436     1.0000 0.64260  0.78529  0.89269  Biso   1.000  C
  C437     1.0000 0.44621  0.87641  0.09970  Biso   1.000  C
  C438     1.0000 0.41631  0.90871  0.03390  Biso   1.000  C
  C439     1.0000 0.47580  0.84509  0.16531  Biso   1.000  C
  H789     1.0000 0.52801  0.85909  0.13851  Biso   1.000  H
  H790     1.0000 0.53410  0.83661  0.17649  Biso   1.000  H
  H791     1.0000 0.60351  0.74949  0.91879  Biso   1.000  H
  H792     1.0000 0.62689  0.76999  0.95040  Biso   1.000  H
  H793     1.0000 0.62390  0.85130  0.93309  Biso   1.000  H
  N107     1.0000 0.55121  0.90731  0.96712  Biso   1.000  N
  H794     1.0000 0.60351  0.92081  0.93671  Biso   1.000  H
  H795     1.0000 0.56481  0.93440  0.91179  Biso   1.000  H
  H796     1.0000 0.64859  0.77121  0.86662  Biso   1.000  H
  H797     1.0000 0.66741  0.79780  0.90221  Biso   1.000  H
  H798     1.0000 0.46359  0.89760  0.10321  Biso   1.000  H
  N108     1.0000 0.44070  0.90160  0.99430  Biso   1.000  N
  H799     1.0000 0.38809  0.91271  0.02610  Biso   1.000  H
  H800     1.0000 0.42599  0.93239  0.04740  Biso   1.000  H
  H801     1.0000 0.46761  0.82489  0.18511  Biso   1.000  H
  H802     1.0000 0.47370  0.86999  0.17980  Biso   1.000  H
  H803     1.0000 0.55991  0.88591  0.98039  Biso   1.000  H
  H804     1.0000 0.55510  0.92740  0.98450  Biso   1.000  H
  C440     1.0000 0.50691  0.90320  0.95928  Biso   1.000  C
  H805     1.0000 0.43400  0.87839  0.98370  Biso   1.000  H
  H806     1.0000 0.43421  0.91950  0.97501  Biso   1.000  H
  C441     1.0000 0.48450  0.90271  0.00150  Biso   1.000  C
  H807     1.0000 0.50161  0.87921  0.94400  Biso   1.000  H
  H808     1.0000 0.49729  0.92481  0.94209  Biso   1.000  H
  H809     1.0000 0.49269  0.87999  0.01780  Biso   1.000  H
  H810     1.0000 0.49151  0.92580  0.01770  Biso   1.000  H
  C442     1.0000 0.82239  0.34031  0.52141  Biso   1.000  C
  N109     1.0000 0.82851  0.33311  0.47541  Biso   1.000  N
  C443     1.0000 0.86249  0.34049  0.54551  Biso   1.000  C
  H811     1.0000 0.80489  0.32031  0.53300  Biso   1.000  H
  H812     1.0000 0.80891  0.36530  0.52520  Biso   1.000  H
  C444     1.0000 0.85609  0.29999  0.46729  Biso   1.000  C
  H813     1.0000 0.80449  0.32830  0.46331  Biso   1.000  H
  H814     1.0000 0.83880  0.35439  0.46331  Biso   1.000  H
  C445     1.0000 0.88809  0.37361  0.54401  Biso   1.000  C
  C446     1.0000 0.87360  0.30990  0.56999  Biso   1.000  C
  C447     1.0000 0.84389  0.27701  0.42989  Biso   1.000  C
  H815     1.0000 0.88349  0.30981  0.46299  Biso   1.000  H
  H816     1.0000 0.85640  0.28319  0.49218  Biso   1.000  H
  C448     1.0000 0.92380  0.37469  0.56610  Biso   1.000  C
  H817     1.0000 0.88039  0.39501  0.52771  Biso   1.000  H
  C449     1.0000 0.91050  0.30929  0.59198  Biso   1.000  C
  H818     1.0000 0.85609  0.28870  0.57231  Biso   1.000  H
  N110     1.0000 0.87159  0.24229  0.42549  Biso   1.000  N
  H819     1.0000 0.84559  0.29290  0.40451  Biso   1.000  H
  H820     1.0000 0.81600  0.26821  0.43310  Biso   1.000  H
  C450     1.0000 0.93589  0.34200  0.58969  Biso   1.000  C
  C451     1.0000 0.94931  0.40999  0.56559  Biso   1.000  C
  C452     1.0000 0.92261  0.27521  0.61850  Biso   1.000  C
  H821     1.0000 0.89649  0.25051  0.41881  Biso   1.000  H
  H822     1.0000 0.87311  0.23001  0.45039  Biso   1.000  H
  C453     1.0000 0.85740  0.21471  0.39270  Biso   1.000  C
  H823     1.0000 0.96079  0.34200  0.60389  Biso   1.000  H
  N111     1.0000 0.98630  0.40711  0.53799  Biso   1.000  N
  H824     1.0000 0.95790  0.41580  0.59450  Biso   1.000  H
  H825     1.0000 0.93290  0.43180  0.55579  Biso   1.000  H
  N112     1.0000 0.92179  0.23771  0.59319  Biso   1.000  N
  H826     1.0000 0.90410  0.27290  0.64250  Biso   1.000  H
  H827     1.0000 0.94980  0.27940  0.62961  Biso   1.000  H
  C454     1.0000 0.88931  0.18389  0.38369  Biso   1.000  C
  H828     1.0000 0.85141  0.22879  0.36660  Biso   1.000  H
  H829     1.0000 0.83259  0.20220  0.40219  Biso   1.000  H
  C455     1.0000 0.97820  0.40419  0.49218  Biso   1.000  C
  H830     1.0000 0.00180  0.42790  0.54261  Biso   1.000  H
  H831     1.0000 0.00049  0.38620  0.54598  Biso   1.000  H
  H832     1.0000 0.89750  0.23529  0.58091  Biso   1.000  H
  H833     1.0000 0.94030  0.23931  0.57250  Biso   1.000  H
  C456     1.0000 0.93010  0.20150  0.61869  Biso   1.000  C
  C457     1.0000 0.89290  0.15120  0.40938  Biso   1.000  C
  C458     1.0000 0.91409  0.18721  0.34890  Biso   1.000  C
  H834     1.0000 0.96061  0.42530  0.48340  Biso   1.000  H
  H835     1.0000 0.96450  0.37979  0.48610  Biso   1.000  H
  C459     1.0000 0.01830  0.40609  0.46729  Biso   1.000  C
  H836     1.0000 0.92009  0.17890  0.60329  Biso   1.000  H
  H837     1.0000 0.91561  0.20290  0.64559  Biso   1.000  H
  C460     1.0000 0.97501  0.19680  0.62710  Biso   1.000  C
  C461     1.0000 0.92109  0.12251  0.40060  Biso   1.000  C
  H838     1.0000 0.87610  0.14870  0.43310  Biso   1.000  H
  C462     1.0000 0.94179  0.15841  0.33801  Biso   1.000  C
  H839     1.0000 0.91220  0.20940  0.33200  Biso   1.000  H
  N113     1.0000 0.01069  0.40530  0.42170  Biso   1.000  N
  H840     1.0000 0.03270  0.42991  0.47471  Biso   1.000  H
  H841     1.0000 0.03541  0.38419  0.47519  Biso   1.000  H
  N114     1.0000 0.98091  0.16150  0.65301  Biso   1.000  N
  H842     1.0000 0.98971  0.19430  0.60039  Biso   1.000  H
  H843     1.0000 0.98539  0.21940  0.64209  Biso   1.000  H
  C463     1.0000 0.94529  0.12540  0.36431  Biso   1.000  C
  C464     1.0000 0.92371  0.08680  0.42829  Biso   1.000  C
  C465     1.0000 0.96730  0.16231  0.29841  Biso   1.000  C
  H844     1.0000 0.99199  0.42309  0.41531  Biso   1.000  H
  H845     1.0000 0.00079  0.38209  0.41451  Biso   1.000  H
  C466     1.0000 0.04871  0.41320  0.39630  Biso   1.000  C
  H846     1.0000 0.97199  0.14091  0.63849  Biso   1.000  H
  H847     1.0000 0.96590  0.16339  0.67650  Biso   1.000  H
  C467     1.0000 0.02420  0.15491  0.66530  Biso   1.000  C
  H848     1.0000 0.96359  0.10569  0.35759  Biso   1.000  H
  N115     1.0000 0.94879  0.09269  0.46710  Biso   1.000  N
  H849     1.0000 0.89649  0.07919  0.43670  Biso   1.000  H
  H850     1.0000 0.93519  0.06560  0.41180  Biso   1.000  H
  H851     1.0000 0.96310  0.13960  0.28071  Biso   1.000  H
  H852     1.0000 0.95811  0.18500  0.28249  Biso   1.000  H
  N116     1.0000 0.01151  0.16651  0.30720  Biso   1.000  N
  C468     1.0000 0.07830  0.37789  0.39821  Biso   1.000  C
  H853     1.0000 0.06220  0.43621  0.40751  Biso   1.000  H
  H854     1.0000 0.04140  0.41839  0.36689  Biso   1.000  H
  C469     1.0000 0.05261  0.15499  0.62891  Biso   1.000  C
  H855     1.0000 0.03239  0.17511  0.68510  Biso   1.000  H
  H856     1.0000 0.02630  0.13001  0.67981  Biso   1.000  H
  H857     1.0000 0.94009  0.11409  0.48041  Biso   1.000  H
  H858     1.0000 0.94490  0.07260  0.48451  Biso   1.000  H
  C470     1.0000 0.99309  0.09680  0.45930  Biso   1.000  C
  H859     1.0000 0.02241  0.17319  0.28240  Biso   1.000  H
  H860     1.0000 0.02009  0.14240  0.31239  Biso   1.000  H
  C471     1.0000 0.03300  0.19129  0.33941  Biso   1.000  C
  H861     1.0000 0.02560  0.16881  0.28319  Biso   1.000  H
  H862     1.0000 0.02091  0.14619  0.32190  Biso   1.000  H
  C472     1.0000 0.01330  0.20409  0.33359  Biso   1.000  C
  C473     1.0000 0.07139  0.34769  0.37090  Biso   1.000  C
  C474     1.0000 0.11160  0.37839  0.42559  Biso   1.000  C
  C475     1.0000 0.05379  0.12359  0.59969  Biso   1.000  C
  C476     1.0000 0.07879  0.18599  0.62251  Biso   1.000  C
  H863     1.0000 0.99839  0.12079  0.44399  Biso   1.000  H
  C477     1.0000 0.01550  0.09729  0.50151  Biso   1.000  C
  H864     1.0000 0.00271  0.07519  0.44211  Biso   1.000  H
  C478     1.0000 0.05309  0.22281  0.32522  Biso   1.000  C
  H865     1.0000 0.01269  0.20001  0.35991  Biso   1.000  H
  H866     1.0000 0.05191  0.17491  0.35460  Biso   1.000  H
  H867     1.0000 0.01059  0.19809  0.36361  Biso   1.000  H
  H868     1.0000 0.99129  0.22141  0.32550  Biso   1.000  H
  C479     1.0000 0.09781  0.31570  0.37099  Biso   1.000  C
  H869     1.0000 0.04929  0.34830  0.35240  Biso   1.000  H
  C480     1.0000 0.13821  0.34690  0.42591  Biso   1.000  C
  H870     1.0000 0.11599  0.39959  0.44342  Biso   1.000  H
  C481     1.0000 0.08110  0.12441  0.56550  Biso   1.000  C
  H871     1.0000 0.03641  0.10240  0.60319  Biso   1.000  H
  C482     1.0000 0.10591  0.18669  0.58909  Biso   1.000  C
  H872     1.0000 0.07821  0.20689  0.64130  Biso   1.000  H
  N117     1.0000 0.05930  0.09840  0.49429  Biso   1.000  N
  H873     1.0000 0.00731  0.12001  0.51781  Biso   1.000  H
  H874     1.0000 0.00849  0.07420  0.51772  Biso   1.000  H
  N118     1.0000 0.06009  0.25579  0.35418  Biso   1.000  N
  H875     1.0000 0.03851  0.23270  0.30061  Biso   1.000  H
  H876     1.0000 0.07949  0.21401  0.31519  Biso   1.000  H
  H877     1.0000 0.07471  0.20380  0.32881  Biso   1.000  H
  H878     1.0000 0.05392  0.23200  0.29599  Biso   1.000  H
  C483     1.0000 0.09221  0.28261  0.33929  Biso   1.000  C
  C484     1.0000 0.13081  0.31570  0.39920  Biso   1.000  C
  C485     1.0000 0.17490  0.34629  0.45449  Biso   1.000  C
  C486     1.0000 0.08369  0.09129  0.53389  Biso   1.000  C
  C487     1.0000 0.10750  0.15619  0.56040  Biso   1.000  C
  C488     1.0000 0.13419  0.22150  0.58310  Biso   1.000  C
  H879     1.0000 0.06600  0.12161  0.48369  Biso   1.000  H
  H880     1.0000 0.06579  0.08050  0.47499  Biso   1.000  H
  H881     1.0000 0.06701  0.24660  0.37972  Biso   1.000  H
  H882     1.0000 0.03699  0.26911  0.35721  Biso   1.000  H
  H883     1.0000 0.08469  0.29319  0.31181  Biso   1.000  H
  H884     1.0000 0.11760  0.26850  0.33610  Biso   1.000  H
  H885     1.0000 0.14811  0.29419  0.39999  Biso   1.000  H
  N119     1.0000 0.16549  0.33640  0.49932  Biso   1.000  N
  H886     1.0000 0.19429  0.32751  0.44361  Biso   1.000  H
  H887     1.0000 0.18780  0.37180  0.45379  Biso   1.000  H
  H888     1.0000 0.11191  0.08729  0.52609  Biso   1.000  H
  H889     1.0000 0.07401  0.06761  0.54738  Biso   1.000  H
  H890     1.0000 0.12600  0.15680  0.53790  Biso   1.000  H
  N120     1.0000 0.11611  0.25060  0.55429  Biso   1.000  N
  H891     1.0000 0.13961  0.23351  0.61061  Biso   1.000  H
  H892     1.0000 0.15989  0.21261  0.57151  Biso   1.000  H
  H893     1.0000 0.15200  0.35620  0.51090  Biso   1.000  H
  H894     1.0000 0.18881  0.33369  0.51339  Biso   1.000  H
  C489     1.0000 0.14089  0.30010  0.50511  Biso   1.000  C
  H895     1.0000 0.09209  0.25809  0.56470  Biso   1.000  H
  H896     1.0000 0.11179  0.23969  0.52898  Biso   1.000  H
  C490     1.0000 0.14220  0.28541  0.54879  Biso   1.000  C
  H897     1.0000 0.11279  0.30541  0.49741  Biso   1.000  H
  H898     1.0000 0.15100  0.28010  0.48601  Biso   1.000  H
  H899     1.0000 0.13319  0.30570  0.56811  Biso   1.000  H
  H900     1.0000 0.17000  0.27879  0.55611  Biso   1.000  H
  N121     1.0000 0.30930  0.15161  0.74431  Biso   1.000  N
  C491     1.0000 0.26550  0.15269  0.75150  Biso   1.000  C
  H901     1.0000 0.31600  0.12840  0.73371  Biso   1.000  H
  H902     1.0000 0.31579  0.16951  0.72499  Biso   1.000  H
  C492     1.0000 0.33369  0.15870  0.78391  Biso   1.000  C
  C493     1.0000 0.24309  0.15319  0.70929  Biso   1.000  C
  H903     1.0000 0.25731  0.13001  0.76780  Biso   1.000  H
  H904     1.0000 0.25849  0.17581  0.76771  Biso   1.000  H
  C494     1.0000 0.33110  0.12560  0.81549  Biso   1.000  C
  H905     1.0000 0.36191  0.16269  0.77611  Biso   1.000  H
  H906     1.0000 0.32401  0.18240  0.79741  Biso   1.000  H
  N122     1.0000 0.19879  0.15730  0.71709  Biso   1.000  N
  H907     1.0000 0.24839  0.12919  0.69401  Biso   1.000  H
  H908     1.0000 0.25271  0.17479  0.69210  Biso   1.000  H
  C495     1.0000 0.30379  0.12639  0.84971  Biso   1.000  C
  C496     1.0000 0.35750  0.09380  0.81040  Biso   1.000  C
  C497     1.0000 0.17371  0.16319  0.67829  Biso   1.000  C
  H909     1.0000 0.19009  0.13590  0.73040  Biso   1.000  H
  H910     1.0000 0.19490  0.17739  0.73450  Biso   1.000  H
  C498     1.0000 0.30261  0.09499  0.87890  Biso   1.000  C
  H911     1.0000 0.28641  0.14759  0.85321  Biso   1.000  H
  H912     1.0000 0.37600  0.09321  0.78789  Biso   1.000  H
  C499     1.0000 0.35591  0.06330  0.83911  Biso   1.000  C
  C500     1.0000 0.17109  0.12750  0.65059  Biso   1.000  C
  H913     1.0000 0.14649  0.17080  0.68669  Biso   1.000  H
  H914     1.0000 0.18519  0.18441  0.66180  Biso   1.000  H
  C501     1.0000 0.32879  0.06400  0.87251  Biso   1.000  C
  C502     1.0000 0.27420  0.09511  0.91529  Biso   1.000  C
  C503     1.0000 0.38419  0.02849  0.83309  Biso   1.000  C
  C504     1.0000 0.19529  0.12461  0.61430  Biso   1.000  C
  C505     1.0000 0.14290  0.09881  0.65941  Biso   1.000  C
  H915     1.0000 0.32821  0.04309  0.89129  Biso   1.000  H
  N123     1.0000 0.23091  0.08849  0.90300  Biso   1.000  N
  H916     1.0000 0.28239  0.07490  0.93509  Biso   1.000  H
  H917     1.0000 0.27630  0.12001  0.92981  Biso   1.000  H
  N124     1.0000 0.36611  0.99939  0.80428  Biso   1.000  N
  H918     1.0000 0.38961  0.01650  0.86060  Biso   1.000  H
  H919     1.0000 0.40989  0.03741  0.82151  Biso   1.000  H
  C506     1.0000 0.19179  0.09161  0.58800  Biso   1.000  C
  H920     1.0000 0.21359  0.14429  0.60761  Biso   1.000  H
  C507     1.0000 0.13931  0.06610  0.63369  Biso   1.000  C
  H921     1.0000 0.12610  0.10129  0.68309  Biso   1.000  H
  H922     1.0000 0.22199  0.10910  0.88849  Biso   1.000  H
  H923     1.0000 0.21590  0.08659  0.92650  Biso   1.000  H
  C508     1.0000 0.22501  0.05321  0.87709  Biso   1.000  C
  C509     1.0000 0.39220  0.96460  0.79881  Biso   1.000  C
  H924     1.0000 0.36179  0.01029  0.77901  Biso   1.000  H
  H925     1.0000 0.34209  0.99189  0.81469  Biso   1.000  H
  C510     1.0000 0.21730  0.08770  0.54840  Biso   1.000  C
  C511     1.0000 0.16409  0.06280  0.59889  Biso   1.000  C
  C512     1.0000 0.10740  0.03531  0.64270  Biso   1.000  C
  C513     1.0000 0.18010  0.04849  0.86868  Biso   1.000  C
  H926     1.0000 0.23971  0.05569  0.85041  Biso   1.000  H
  H927     1.0000 0.23539  0.03061  0.89211  Biso   1.000  H
  C514     1.0000 0.39089  0.94991  0.75510  Biso   1.000  C
  H928     1.0000 0.38319  0.94431  0.81810  Biso   1.000  H
  H929     1.0000 0.42000  0.97119  0.80610  Biso   1.000  H
  N125     1.0000 0.26151  0.08350  0.55719  Biso   1.000  N
  H930     1.0000 0.21310  0.11039  0.53070  Biso   1.000  H
  H931     1.0000 0.20811  0.06499  0.53249  Biso   1.000  H
  H932     1.0000 0.16220  0.04059  0.58199  Biso   1.000  H
  N126     1.0000 0.12159  0.00770  0.67548  Biso   1.000  N
  H933     1.0000 0.10141  0.02120  0.61659  Biso   1.000  H
  H934     1.0000 0.08259  0.04779  0.65221  Biso   1.000  H
  N127     1.0000 0.17179  0.01230  0.84319  Biso   1.000  N
  H935     1.0000 0.17009  0.07111  0.85331  Biso   1.000  H
  H936     1.0000 0.16561  0.04709  0.89558  Biso   1.000  H
  N128     1.0000 0.41549  0.91361  0.74931  Biso   1.000  N
  H937     1.0000 0.36279  0.94460  0.74740  Biso   1.000  H
  H938     1.0000 0.40100  0.96991  0.73600  Biso   1.000  H
  H939     1.0000 0.27241  0.07680  0.53239  Biso   1.000  H
  H940     1.0000 0.27009  0.10759  0.56241  Biso   1.000  H
  C515     1.0000 0.28300  0.05869  0.58941  Biso   1.000  C
  H941     1.0000 0.27560  0.08120  0.53319  Biso   1.000  H
  H942     1.0000 0.27091  0.10380  0.57190  Biso   1.000  H
  C516     1.0000 0.26330  0.04589  0.58361  Biso   1.000  C
  H943     1.0000 0.12311  0.02000  0.70041  Biso   1.000  H
  H944     1.0000 0.14649  0.99950  0.66880  Biso   1.000  H
  C517     1.0000 0.09389  0.97300  0.67991  Biso   1.000  C
  C518     1.0000 0.17261  0.97481  0.86849  Biso   1.000  C
  H945     1.0000 0.14750  0.01469  0.83090  Biso   1.000  H
  H946     1.0000 0.19030  0.01070  0.82249  Biso   1.000  H
  C519     1.0000 0.42490  0.90370  0.70449  Biso   1.000  C
  H947     1.0000 0.40200  0.89381  0.76090  Biso   1.000  H
  H948     1.0000 0.43881  0.91629  0.76341  Biso   1.000  H
  C520     1.0000 0.30309  0.02720  0.57521  Biso   1.000  C
  H949     1.0000 0.26269  0.05000  0.60991  Biso   1.000  H
  H950     1.0000 0.30191  0.07511  0.60459  Biso   1.000  H
  H951     1.0000 0.26059  0.05190  0.61360  Biso   1.000  H
  H952     1.0000 0.24129  0.02860  0.57549  Biso   1.000  H
  C521     1.0000 0.10609  0.95000  0.71731  Biso   1.000  C
  H953     1.0000 0.09559  0.95711  0.65451  Biso   1.000  H
  H954     1.0000 0.06600  0.98181  0.68309  Biso   1.000  H
  C522     1.0000 0.16050  0.94070  0.84201  Biso   1.000  C
  H955     1.0000 0.15410  0.97711  0.89250  Biso   1.000  H
  H956     1.0000 0.19980  0.97061  0.87960  Biso   1.000  H
  C523     1.0000 0.38821  0.90311  0.67590  Biso   1.000  C
  H957     1.0000 0.44429  0.92250  0.69360  Biso   1.000  H
  H958     1.0000 0.43780  0.87821  0.70379  Biso   1.000  H
  H959     1.0000 0.28851  0.01729  0.55060  Biso   1.000  H
  H960     1.0000 0.32949  0.03601  0.56521  Biso   1.000  H
  H961     1.0000 0.32471  0.04621  0.57880  Biso   1.000  H
  H962     1.0000 0.30392  0.01799  0.54598  Biso   1.000  H
  N129     1.0000 0.31009  0.99420  0.60421  Biso   1.000  N
  N130     1.0000 0.07851  0.91690  0.72540  Biso   1.000  N
  H963     1.0000 0.13349  0.94020  0.71299  Biso   1.000  H
  H964     1.0000 0.10640  0.96679  0.74221  Biso   1.000  H
  C524     1.0000 0.12360  0.94011  0.82001  Biso   1.000  C
  C525     1.0000 0.18589  0.90801  0.83968  Biso   1.000  C
  C526     1.0000 0.38081  0.93431  0.64919  Biso   1.000  C
  C527     1.0000 0.36160  0.87160  0.67561  Biso   1.000  C
  H965     1.0000 0.31701  0.00341  0.62971  Biso   1.000  H
  H966     1.0000 0.28699  0.98090  0.60720  Biso   1.000  H
  C528     1.0000 0.34221  0.96740  0.58931  Biso   1.000  C
  H967     1.0000 0.05449  0.92169  0.71330  Biso   1.000  H
  H968     1.0000 0.08880  0.89559  0.71330  Biso   1.000  H
  C529     1.0000 0.07239  0.90970  0.77140  Biso   1.000  C
  C530     1.0000 0.11249  0.90950  0.79550  Biso   1.000  C
  H969     1.0000 0.10609  0.96131  0.82230  Biso   1.000  H
  C531     1.0000 0.17380  0.87530  0.81610  Biso   1.000  C
  H970     1.0000 0.21079  0.90801  0.85391  Biso   1.000  H
  C532     1.0000 0.34781  0.93431  0.62098  Biso   1.000  C
  H971     1.0000 0.39811  0.95580  0.64999  Biso   1.000  H
  C533     1.0000 0.32830  0.87209  0.64820  Biso   1.000  C
  H972     1.0000 0.36599  0.85040  0.69341  Biso   1.000  H
  H973     1.0000 0.33469  0.95679  0.56181  Biso   1.000  H
  H974     1.0000 0.36760  0.98149  0.58609  Biso   1.000  H
  H975     1.0000 0.05489  0.92970  0.78299  Biso   1.000  H
  H976     1.0000 0.05891  0.88469  0.77519  Biso   1.000  H
  C534     1.0000 0.13809  0.87641  0.79400  Biso   1.000  C
  C535     1.0000 0.19931  0.83999  0.81559  Biso   1.000  C
  C536     1.0000 0.32139  0.90230  0.62089  Biso   1.000  C
  C537     1.0000 0.29871  0.83681  0.64629  Biso   1.000  C
  H977     1.0000 0.13039  0.85501  0.77770  Biso   1.000  H
  N131     1.0000 0.23630  0.84291  0.78799  Biso   1.000  N
  H978     1.0000 0.20790  0.83419  0.84449  Biso   1.000  H
  H979     1.0000 0.18290  0.81821  0.80581  Biso   1.000  H
  H980     1.0000 0.29929  0.90171  0.60239  Biso   1.000  H
  N132     1.0000 0.26069  0.84471  0.67170  Biso   1.000  N
  H981     1.0000 0.31220  0.81381  0.65750  Biso   1.000  H
  H982     1.0000 0.29140  0.83159  0.61691  Biso   1.000  H
  C538     1.0000 0.22820  0.84579  0.74221  Biso   1.000  C
  H983     1.0000 0.25180  0.82209  0.79260  Biso   1.000  H
  H984     1.0000 0.25049  0.86381  0.79601  Biso   1.000  H
  H985     1.0000 0.24199  0.82690  0.66530  Biso   1.000  H
  H986     1.0000 0.25079  0.86789  0.66450  Biso   1.000  H
  C539     1.0000 0.26830  0.84390  0.71731  Biso   1.000  C
  H987     1.0000 0.21061  0.82471  0.73339  Biso   1.000  H
  H988     1.0000 0.21450  0.87020  0.73610  Biso   1.000  H
  H989     1.0000 0.28270  0.82011  0.72470  Biso   1.000  H
  H990     1.0000 0.28541  0.86579  0.72521  Biso   1.000  H
  N133     1.0000 0.69070  0.84839  0.74431  Biso   1.000  N
  H991     1.0000 0.68400  0.87160  0.73371  Biso   1.000  H
  H992     1.0000 0.68421  0.83049  0.72499  Biso   1.000  H
  C540     1.0000 0.66631  0.84130  0.78391  Biso   1.000  C
  C541     1.0000 0.73450  0.84731  0.75150  Biso   1.000  C
  C542     1.0000 0.66890  0.87440  0.81549  Biso   1.000  C
  H993     1.0000 0.63809  0.83731  0.77611  Biso   1.000  H
  H994     1.0000 0.67599  0.81760  0.79741  Biso   1.000  H
  H995     1.0000 0.74269  0.86999  0.76780  Biso   1.000  H
  H996     1.0000 0.74151  0.82419  0.76771  Biso   1.000  H
  C543     1.0000 0.75691  0.84681  0.70929  Biso   1.000  C
  C544     1.0000 0.69621  0.87361  0.84971  Biso   1.000  C
  C545     1.0000 0.64250  0.90620  0.81040  Biso   1.000  C
  N134     1.0000 0.80121  0.84270  0.71709  Biso   1.000  N
  H997     1.0000 0.75161  0.87081  0.69401  Biso   1.000  H
  H998     1.0000 0.74729  0.82521  0.69210  Biso   1.000  H
  C546     1.0000 0.69739  0.90501  0.87890  Biso   1.000  C
  H999     1.0000 0.71359  0.85241  0.85321  Biso   1.000  H
  H1000    1.0000 0.62400  0.90679  0.78789  Biso   1.000  H
  C547     1.0000 0.64409  0.93670  0.83911  Biso   1.000  C
  H1001    1.0000 0.80991  0.86410  0.73040  Biso   1.000  H
  H1002    1.0000 0.80510  0.82261  0.73450  Biso   1.000  H
  C548     1.0000 0.82629  0.83681  0.67829  Biso   1.000  C
  C549     1.0000 0.67121  0.93600  0.87251  Biso   1.000  C
  C550     1.0000 0.72580  0.90489  0.91529  Biso   1.000  C
  C551     1.0000 0.61581  0.97151  0.83309  Biso   1.000  C
  C552     1.0000 0.82891  0.87250  0.65059  Biso   1.000  C
  H1003    1.0000 0.85351  0.82920  0.68669  Biso   1.000  H
  H1004    1.0000 0.81481  0.81559  0.66180  Biso   1.000  H
  H1005    1.0000 0.67179  0.95691  0.89129  Biso   1.000  H
  N135     1.0000 0.76909  0.91151  0.90300  Biso   1.000  N
  H1006    1.0000 0.71761  0.92510  0.93509  Biso   1.000  H
  H1007    1.0000 0.72370  0.87999  0.92981  Biso   1.000  H
  H1008    1.0000 0.61039  0.98350  0.86060  Biso   1.000  H
  H1009    1.0000 0.59011  0.96259  0.82151  Biso   1.000  H
  N136     1.0000 0.63389  0.00061  0.80428  Biso   1.000  N
  C553     1.0000 0.80471  0.87539  0.61430  Biso   1.000  C
  C554     1.0000 0.85710  0.90119  0.65941  Biso   1.000  C
  H1010    1.0000 0.77801  0.89090  0.88849  Biso   1.000  H
  H1011    1.0000 0.78410  0.91341  0.92650  Biso   1.000  H
  C555     1.0000 0.77499  0.94679  0.87709  Biso   1.000  C
  H1012    1.0000 0.63821  0.98971  0.77901  Biso   1.000  H
  H1013    1.0000 0.65791  0.00811  0.81469  Biso   1.000  H
  C556     1.0000 0.60780  0.03540  0.79881  Biso   1.000  C
  C557     1.0000 0.80821  0.90839  0.58800  Biso   1.000  C
  H1014    1.0000 0.78641  0.85571  0.60761  Biso   1.000  H
  H1015    1.0000 0.87390  0.89871  0.68309  Biso   1.000  H
  C558     1.0000 0.86069  0.93390  0.63369  Biso   1.000  C
  C559     1.0000 0.81990  0.95151  0.86868  Biso   1.000  C
  H1016    1.0000 0.76029  0.94431  0.85041  Biso   1.000  H
  H1017    1.0000 0.76461  0.96939  0.89211  Biso   1.000  H
  C560     1.0000 0.60911  0.05009  0.75510  Biso   1.000  C
  H1018    1.0000 0.61681  0.05569  0.81810  Biso   1.000  H
  H1019    1.0000 0.58000  0.02881  0.80610  Biso   1.000  H
  C561     1.0000 0.83591  0.93720  0.59889  Biso   1.000  C
  C562     1.0000 0.78270  0.91230  0.54840  Biso   1.000  C
  C563     1.0000 0.89260  0.96469  0.64270  Biso   1.000  C
  N137     1.0000 0.82821  0.98770  0.84319  Biso   1.000  N
  H1020    1.0000 0.82991  0.92889  0.85331  Biso   1.000  H
  H1021    1.0000 0.83439  0.95291  0.89558  Biso   1.000  H
  N138     1.0000 0.58451  0.08639  0.74931  Biso   1.000  N
  H1022    1.0000 0.63721  0.05540  0.74740  Biso   1.000  H
  H1023    1.0000 0.59900  0.03009  0.73600  Biso   1.000  H
  H1024    1.0000 0.83780  0.95941  0.58199  Biso   1.000  H
  N139     1.0000 0.73849  0.91650  0.55719  Biso   1.000  N
  H1025    1.0000 0.78690  0.88961  0.53070  Biso   1.000  H
  H1026    1.0000 0.79189  0.93501  0.53249  Biso   1.000  H
  N140     1.0000 0.87841  0.99230  0.67548  Biso   1.000  N
  H1027    1.0000 0.89859  0.97880  0.61659  Biso   1.000  H
  H1028    1.0000 0.91741  0.95221  0.65221  Biso   1.000  H
  H1029    1.0000 0.85250  0.98531  0.83090  Biso   1.000  H
  H1030    1.0000 0.80970  0.98930  0.82249  Biso   1.000  H
  C564     1.0000 0.82739  0.02519  0.86849  Biso   1.000  C
  H1031    1.0000 0.59800  0.10619  0.76090  Biso   1.000  H
  H1032    1.0000 0.56119  0.08371  0.76341  Biso   1.000  H
  C565     1.0000 0.57510  0.09630  0.70449  Biso   1.000  C
  H1033    1.0000 0.72759  0.92320  0.53239  Biso   1.000  H
  H1034    1.0000 0.72991  0.89241  0.56241  Biso   1.000  H
  C566     1.0000 0.71700  0.94131  0.58941  Biso   1.000  C
  H1035    1.0000 0.72440  0.91880  0.53319  Biso   1.000  H
  H1036    1.0000 0.72909  0.89620  0.57190  Biso   1.000  H
  C567     1.0000 0.73670  0.95411  0.58361  Biso   1.000  C
  H1037    1.0000 0.87689  0.98000  0.70041  Biso   1.000  H
  H1038    1.0000 0.85351  0.00050  0.66880  Biso   1.000  H
  C568     1.0000 0.90611  0.02700  0.67991  Biso   1.000  C
  C569     1.0000 0.83950  0.05930  0.84201  Biso   1.000  C
  H1039    1.0000 0.84590  0.02289  0.89250  Biso   1.000  H
  H1040    1.0000 0.80020  0.02939  0.87960  Biso   1.000  H
  C570     1.0000 0.61179  0.09689  0.67590  Biso   1.000  C
  H1041    1.0000 0.55571  0.07750  0.69360  Biso   1.000  H
  H1042    1.0000 0.56220  0.12179  0.70379  Biso   1.000  H
  C571     1.0000 0.69691  0.97280  0.57521  Biso   1.000  C
  H1043    1.0000 0.73731  0.95000  0.60991  Biso   1.000  H
  H1044    1.0000 0.69809  0.92489  0.60459  Biso   1.000  H
  H1045    1.0000 0.73941  0.94810  0.61360  Biso   1.000  H
  H1046    1.0000 0.75871  0.97140  0.57549  Biso   1.000  H
  C572     1.0000 0.89391  0.05000  0.71731  Biso   1.000  C
  H1047    1.0000 0.90441  0.04289  0.65451  Biso   1.000  H
  H1048    1.0000 0.93400  0.01819  0.68309  Biso   1.000  H
  C573     1.0000 0.81411  0.09199  0.83968  Biso   1.000  C
  C574     1.0000 0.87640  0.05989  0.82001  Biso   1.000  C
  C575     1.0000 0.61919  0.06569  0.64919  Biso   1.000  C
  C576     1.0000 0.63840  0.12840  0.67561  Biso   1.000  C
  H1049    1.0000 0.71149  0.98271  0.55060  Biso   1.000  H
  H1050    1.0000 0.67051  0.96399  0.56521  Biso   1.000  H
  H1051    1.0000 0.67529  0.95379  0.57880  Biso   1.000  H
  H1052    1.0000 0.69608  0.98201  0.54598  Biso   1.000  H
  N141     1.0000 0.68991  0.00580  0.60421  Biso   1.000  N
  N142     1.0000 0.92149  0.08310  0.72540  Biso   1.000  N
  H1053    1.0000 0.86651  0.05980  0.71299  Biso   1.000  H
  H1054    1.0000 0.89360  0.03321  0.74221  Biso   1.000  H
  H1055    1.0000 0.78921  0.09199  0.85391  Biso   1.000  H
  C577     1.0000 0.82620  0.12470  0.81610  Biso   1.000  C
  C578     1.0000 0.88751  0.09050  0.79550  Biso   1.000  C
  H1056    1.0000 0.89391  0.03869  0.82230  Biso   1.000  H
  H1057    1.0000 0.60189  0.04420  0.64999  Biso   1.000  H
  C579     1.0000 0.65219  0.06569  0.62098  Biso   1.000  C
  C580     1.0000 0.67170  0.12791  0.64820  Biso   1.000  C
  H1058    1.0000 0.63401  0.14960  0.69341  Biso   1.000  H
  H1059    1.0000 0.68299  0.99659  0.62971  Biso   1.000  H
  H1060    1.0000 0.71301  0.01910  0.60720  Biso   1.000  H
  C581     1.0000 0.65779  0.03260  0.58931  Biso   1.000  C
  H1061    1.0000 0.94551  0.07831  0.71330  Biso   1.000  H
  H1062    1.0000 0.91120  0.10441  0.71330  Biso   1.000  H
  C582     1.0000 0.92761  0.09030  0.77140  Biso   1.000  C
  C583     1.0000 0.86191  0.12359  0.79400  Biso   1.000  C
  C584     1.0000 0.80069  0.16001  0.81559  Biso   1.000  C
  C585     1.0000 0.67861  0.09770  0.62089  Biso   1.000  C
  C586     1.0000 0.70129  0.16319  0.64629  Biso   1.000  C
  H1063    1.0000 0.66531  0.04321  0.56181  Biso   1.000  H
  H1064    1.0000 0.63240  0.01851  0.58609  Biso   1.000  H
  H1065    1.0000 0.94511  0.07030  0.78299  Biso   1.000  H
  H1066    1.0000 0.94109  0.11531  0.77519  Biso   1.000  H
  H1067    1.0000 0.86961  0.14499  0.77770  Biso   1.000  H
  N143     1.0000 0.76370  0.15709  0.78799  Biso   1.000  N
  H1068    1.0000 0.79210  0.16581  0.84449  Biso   1.000  H
  H1069    1.0000 0.81710  0.18179  0.80581  Biso   1.000  H
  H1070    1.0000 0.70071  0.09829  0.60239  Biso   1.000  H
  N144     1.0000 0.73931  0.15529  0.67170  Biso   1.000  N
  H1071    1.0000 0.68780  0.18619  0.65750  Biso   1.000  H
  H1072    1.0000 0.70860  0.16841  0.61691  Biso   1.000  H
  H1073    1.0000 0.74820  0.17791  0.79260  Biso   1.000  H
  H1074    1.0000 0.74951  0.13619  0.79601  Biso   1.000  H
  C587     1.0000 0.77180  0.15421  0.74221  Biso   1.000  C
  H1075    1.0000 0.75801  0.17310  0.66530  Biso   1.000  H
  H1076    1.0000 0.74921  0.13211  0.66450  Biso   1.000  H
  C588     1.0000 0.73170  0.15610  0.71731  Biso   1.000  C
  H1077    1.0000 0.78939  0.17529  0.73339  Biso   1.000  H
  H1078    1.0000 0.78550  0.12980  0.73610  Biso   1.000  H
  H1079    1.0000 0.71730  0.17989  0.72470  Biso   1.000  H
  H1080    1.0000 0.71459  0.13421  0.72521  Biso   1.000  H
  N145     1.0000 0.73091  0.08849  0.40299  Biso   1.000  N
  C589     1.0000 0.77420  0.09511  0.41531  Biso   1.000  C
  H1081    1.0000 0.72199  0.10910  0.38850  Biso   1.000  H
  H1082    1.0000 0.71590  0.08659  0.42651  Biso   1.000  H
  C590     1.0000 0.72501  0.05321  0.37711  Biso   1.000  C
  C591     1.0000 0.80261  0.09499  0.37889  Biso   1.000  C
  H1083    1.0000 0.78239  0.07490  0.43511  Biso   1.000  H
  H1084    1.0000 0.77630  0.12001  0.42979  Biso   1.000  H
  C592     1.0000 0.68010  0.04849  0.36870  Biso   1.000  C
  H1085    1.0000 0.73971  0.05569  0.35040  Biso   1.000  H
  H1086    1.0000 0.73539  0.03061  0.39210  Biso   1.000  H
  C593     1.0000 0.80379  0.12639  0.34970  Biso   1.000  C
  C594     1.0000 0.82879  0.06400  0.37249  Biso   1.000  C
  N146     1.0000 0.67179  0.01230  0.34320  Biso   1.000  N
  H1087    1.0000 0.67009  0.07111  0.35329  Biso   1.000  H
  H1088    1.0000 0.66561  0.04709  0.39560  Biso   1.000  H
  C595     1.0000 0.83110  0.12560  0.31551  Biso   1.000  C
  H1089    1.0000 0.78641  0.14759  0.35320  Biso   1.000  H
  C596     1.0000 0.85591  0.06330  0.33910  Biso   1.000  C
  H1090    1.0000 0.82821  0.04309  0.39130  Biso   1.000  H
  C597     1.0000 0.67261  0.97481  0.36851  Biso   1.000  C
  H1091    1.0000 0.64750  0.01469  0.33091  Biso   1.000  H
  H1092    1.0000 0.69030  0.01070  0.32251  Biso   1.000  H
  C598     1.0000 0.83369  0.15870  0.28390  Biso   1.000  C
  C599     1.0000 0.85750  0.09380  0.31041  Biso   1.000  C
  C600     1.0000 0.88419  0.02849  0.33311  Biso   1.000  C
  C601     1.0000 0.66050  0.94070  0.34199  Biso   1.000  C
  H1093    1.0000 0.65410  0.97711  0.39251  Biso   1.000  H
  H1094    1.0000 0.69980  0.97061  0.37959  Biso   1.000  H
  N147     1.0000 0.80930  0.15161  0.24429  Biso   1.000  N
  H1095    1.0000 0.86191  0.16269  0.27610  Biso   1.000  H
  H1096    1.0000 0.82401  0.18240  0.29739  Biso   1.000  H
  H1097    1.0000 0.87600  0.09321  0.28791  Biso   1.000  H
  H1098    1.0000 0.88961  0.01650  0.36062  Biso   1.000  H
  H1099    1.0000 0.90989  0.03741  0.32149  Biso   1.000  H
  N148     1.0000 0.86611  0.99939  0.30430  Biso   1.000  N
  C602     1.0000 0.62360  0.94011  0.31999  Biso   1.000  C
  C603     1.0000 0.68589  0.90801  0.33970  Biso   1.000  C
  C604     1.0000 0.76550  0.15269  0.25149  Biso   1.000  C
  H1100    1.0000 0.81600  0.12840  0.23369  Biso   1.000  H
  H1101    1.0000 0.81579  0.16951  0.22500  Biso   1.000  H
  H1102    1.0000 0.86179  0.01029  0.27899  Biso   1.000  H
  H1103    1.0000 0.84209  0.99189  0.31471  Biso   1.000  H
  C605     1.0000 0.89220  0.96460  0.29879  Biso   1.000  C
  C606     1.0000 0.61249  0.90950  0.29551  Biso   1.000  C
  H1104    1.0000 0.60609  0.96131  0.32229  Biso   1.000  H
  C607     1.0000 0.67380  0.87530  0.31611  Biso   1.000  C
  H1105    1.0000 0.71079  0.90801  0.35390  Biso   1.000  H
  C608     1.0000 0.74309  0.15319  0.20931  Biso   1.000  C
  H1106    1.0000 0.75731  0.13001  0.26779  Biso   1.000  H
  H1107    1.0000 0.75849  0.17581  0.26769  Biso   1.000  H
  C609     1.0000 0.89089  0.94991  0.25509  Biso   1.000  C
  H1108    1.0000 0.88319  0.94431  0.31808  Biso   1.000  H
  H1109    1.0000 0.92000  0.97119  0.30612  Biso   1.000  H
  C610     1.0000 0.57239  0.90970  0.27138  Biso   1.000  C
  C611     1.0000 0.63809  0.87641  0.29399  Biso   1.000  C
  C612     1.0000 0.69931  0.83999  0.31560  Biso   1.000  C
  N149     1.0000 0.69879  0.15730  0.21711  Biso   1.000  N
  H1110    1.0000 0.74839  0.12919  0.19400  Biso   1.000  H
  H1111    1.0000 0.75271  0.17479  0.19209  Biso   1.000  H
  N150     1.0000 0.91549  0.91361  0.24929  Biso   1.000  N
  H1112    1.0000 0.86279  0.94460  0.24741  Biso   1.000  H
  H1113    1.0000 0.90100  0.96991  0.23599  Biso   1.000  H
  N151     1.0000 0.57851  0.91690  0.22538  Biso   1.000  N
  H1114    1.0000 0.55489  0.92970  0.28300  Biso   1.000  H
  H1115    1.0000 0.55891  0.88469  0.27520  Biso   1.000  H
  H1116    1.0000 0.63039  0.85501  0.27769  Biso   1.000  H
  N152     1.0000 0.73630  0.84291  0.28800  Biso   1.000  N
  H1117    1.0000 0.70790  0.83419  0.34451  Biso   1.000  H
  H1118    1.0000 0.68290  0.81821  0.30580  Biso   1.000  H
  C613     1.0000 0.67371  0.16319  0.17830  Biso   1.000  C
  H1119    1.0000 0.69009  0.13590  0.23041  Biso   1.000  H
  H1120    1.0000 0.69490  0.17739  0.23449  Biso   1.000  H
  C614     1.0000 0.92490  0.90370  0.20450  Biso   1.000  C
  H1121    1.0000 0.90200  0.89381  0.26091  Biso   1.000  H
  H1122    1.0000 0.93881  0.91629  0.26339  Biso   1.000  H
  C615     1.0000 0.60609  0.95000  0.21730  Biso   1.000  C
  H1123    1.0000 0.55449  0.92169  0.21329  Biso   1.000  H
  H1124    1.0000 0.58880  0.89559  0.21329  Biso   1.000  H
  H1125    1.0000 0.75180  0.82209  0.29259  Biso   1.000  H
  H1126    1.0000 0.75049  0.86381  0.29599  Biso   1.000  H
  C616     1.0000 0.72820  0.84579  0.24219  Biso   1.000  C
  C617     1.0000 0.67109  0.12750  0.15061  Biso   1.000  C
  H1127    1.0000 0.64649  0.17080  0.18671  Biso   1.000  H
  H1128    1.0000 0.68519  0.18441  0.16181  Biso   1.000  H
  C618     1.0000 0.88821  0.90311  0.17591  Biso   1.000  C
  H1129    1.0000 0.94429  0.92250  0.19361  Biso   1.000  H
  H1130    1.0000 0.93780  0.87821  0.20380  Biso   1.000  H
  C619     1.0000 0.59389  0.97300  0.17989  Biso   1.000  C
  H1131    1.0000 0.63349  0.94020  0.21300  Biso   1.000  H
  H1132    1.0000 0.60640  0.96679  0.24219  Biso   1.000  H
  H1133    1.0000 0.71061  0.82471  0.23341  Biso   1.000  H
  H1134    1.0000 0.71450  0.87020  0.23611  Biso   1.000  H
  C620     1.0000 0.76830  0.84390  0.21730  Biso   1.000  C
  C621     1.0000 0.64290  0.09881  0.15939  Biso   1.000  C
  C622     1.0000 0.69529  0.12461  0.11432  Biso   1.000  C
  C623     1.0000 0.88081  0.93431  0.14921  Biso   1.000  C
  C624     1.0000 0.86160  0.87160  0.17560  Biso   1.000  C
  N153     1.0000 0.62159  0.00770  0.17550  Biso   1.000  N
  H1135    1.0000 0.59559  0.95711  0.15449  Biso   1.000  H
  H1136    1.0000 0.56600  0.98181  0.18311  Biso   1.000  H
  N154     1.0000 0.76069  0.84471  0.17171  Biso   1.000  N
  H1137    1.0000 0.78270  0.82011  0.22472  Biso   1.000  H
  H1138    1.0000 0.78541  0.86579  0.22519  Biso   1.000  H
  H1139    1.0000 0.62610  0.10129  0.18311  Biso   1.000  H
  C625     1.0000 0.63931  0.06610  0.13370  Biso   1.000  C
  C626     1.0000 0.69179  0.09161  0.08799  Biso   1.000  C
  H1140    1.0000 0.71359  0.14429  0.10760  Biso   1.000  H
  C627     1.0000 0.84781  0.93431  0.12100  Biso   1.000  C
  H1141    1.0000 0.89811  0.95580  0.15000  Biso   1.000  H
  C628     1.0000 0.82830  0.87209  0.14819  Biso   1.000  C
  H1142    1.0000 0.86599  0.85040  0.19339  Biso   1.000  H
  C629     1.0000 0.60740  0.03531  0.14271  Biso   1.000  C
  H1143    1.0000 0.62311  0.02000  0.20039  Biso   1.000  H
  H1144    1.0000 0.64649  0.99950  0.16882  Biso   1.000  H
  C630     1.0000 0.79871  0.83681  0.14631  Biso   1.000  C
  H1145    1.0000 0.74199  0.82690  0.16531  Biso   1.000  H
  H1146    1.0000 0.75079  0.86789  0.16449  Biso   1.000  H
  C631     1.0000 0.66409  0.06280  0.09891  Biso   1.000  C
  C632     1.0000 0.71730  0.08770  0.04839  Biso   1.000  C
  C633     1.0000 0.84221  0.96740  0.08929  Biso   1.000  C
  C634     1.0000 0.82139  0.90230  0.12091  Biso   1.000  C
  H1147    1.0000 0.60141  0.02120  0.11661  Biso   1.000  H
  H1148    1.0000 0.58259  0.04779  0.15220  Biso   1.000  H
  H1149    1.0000 0.81220  0.81381  0.15751  Biso   1.000  H
  H1150    1.0000 0.79140  0.83159  0.11689  Biso   1.000  H
  H1151    1.0000 0.66220  0.04059  0.08200  Biso   1.000  H
  N155     1.0000 0.76151  0.08350  0.05721  Biso   1.000  N
  H1152    1.0000 0.71310  0.11039  0.03069  Biso   1.000  H
  H1153    1.0000 0.70811  0.06499  0.03250  Biso   1.000  H
  N156     1.0000 0.81009  0.99420  0.10419  Biso   1.000  N
  H1154    1.0000 0.83469  0.95679  0.06179  Biso   1.000  H
  H1155    1.0000 0.86760  0.98149  0.08611  Biso   1.000  H
  H1156    1.0000 0.79929  0.90171  0.10241  Biso   1.000  H
  H1157    1.0000 0.77241  0.07680  0.03241  Biso   1.000  H
  H1158    1.0000 0.77009  0.10759  0.06239  Biso   1.000  H
  C635     1.0000 0.78300  0.05869  0.08939  Biso   1.000  C
  H1159    1.0000 0.77560  0.08120  0.03320  Biso   1.000  H
  H1160    1.0000 0.77091  0.10380  0.07191  Biso   1.000  H
  C636     1.0000 0.76330  0.04589  0.08360  Biso   1.000  C
  C637     1.0000 0.80309  0.02720  0.07519  Biso   1.000  C
  H1161    1.0000 0.81701  0.00341  0.12969  Biso   1.000  H
  H1162    1.0000 0.78699  0.98090  0.10718  Biso   1.000  H
  H1163    1.0000 0.76269  0.05000  0.10989  Biso   1.000  H
  H1164    1.0000 0.80191  0.07511  0.10461  Biso   1.000  H
  H1165    1.0000 0.76059  0.05190  0.11362  Biso   1.000  H
  H1166    1.0000 0.74129  0.02860  0.07551  Biso   1.000  H
  H1167    1.0000 0.78851  0.01729  0.05058  Biso   1.000  H
  H1168    1.0000 0.82949  0.03601  0.06520  Biso   1.000  H
  H1169    1.0000 0.82471  0.04621  0.07879  Biso   1.000  H
  H1170    1.0000 0.80392  0.01799  0.04600  Biso   1.000  H
  N157     1.0000 0.26909  0.91151  0.40299  Biso   1.000  N
  C638     1.0000 0.22580  0.90489  0.41531  Biso   1.000  C
  H1171    1.0000 0.27801  0.89090  0.38850  Biso   1.000  H
  H1172    1.0000 0.28410  0.91341  0.42651  Biso   1.000  H
  C639     1.0000 0.27499  0.94679  0.37711  Biso   1.000  C
  C640     1.0000 0.19739  0.90501  0.37889  Biso   1.000  C
  H1173    1.0000 0.21761  0.92510  0.43511  Biso   1.000  H
  H1174    1.0000 0.22370  0.87999  0.42979  Biso   1.000  H
  C641     1.0000 0.31990  0.95151  0.36870  Biso   1.000  C
  H1175    1.0000 0.26029  0.94431  0.35040  Biso   1.000  H
  H1176    1.0000 0.26461  0.96939  0.39210  Biso   1.000  H
  C642     1.0000 0.19621  0.87361  0.34970  Biso   1.000  C
  C643     1.0000 0.17121  0.93600  0.37249  Biso   1.000  C
  N158     1.0000 0.32821  0.98770  0.34320  Biso   1.000  N
  H1177    1.0000 0.32991  0.92889  0.35329  Biso   1.000  H
  H1178    1.0000 0.33439  0.95291  0.39560  Biso   1.000  H
  C644     1.0000 0.16890  0.87440  0.31551  Biso   1.000  C
  H1179    1.0000 0.21359  0.85241  0.35320  Biso   1.000  H
  C645     1.0000 0.14409  0.93670  0.33910  Biso   1.000  C
  H1180    1.0000 0.17179  0.95691  0.39130  Biso   1.000  H
  C646     1.0000 0.32739  0.02519  0.36851  Biso   1.000  C
  H1181    1.0000 0.35250  0.98531  0.33091  Biso   1.000  H
  H1182    1.0000 0.30970  0.98930  0.32251  Biso   1.000  H
  C647     1.0000 0.16631  0.84130  0.28390  Biso   1.000  C
  C648     1.0000 0.14250  0.90620  0.31041  Biso   1.000  C
  C649     1.0000 0.11581  0.97151  0.33311  Biso   1.000  C
  C650     1.0000 0.33950  0.05930  0.34199  Biso   1.000  C
  H1183    1.0000 0.34590  0.02289  0.39251  Biso   1.000  H
  H1184    1.0000 0.30020  0.02939  0.37959  Biso   1.000  H
  N159     1.0000 0.19070  0.84839  0.24429  Biso   1.000  N
  H1185    1.0000 0.13809  0.83731  0.27610  Biso   1.000  H
  H1186    1.0000 0.17599  0.81760  0.29739  Biso   1.000  H
  H1187    1.0000 0.12400  0.90679  0.28791  Biso   1.000  H
  H1188    1.0000 0.11039  0.98350  0.36062  Biso   1.000  H
  H1189    1.0000 0.09011  0.96259  0.32149  Biso   1.000  H
  N160     1.0000 0.13389  0.00061  0.30430  Biso   1.000  N
  C651     1.0000 0.37640  0.05989  0.31999  Biso   1.000  C
  C652     1.0000 0.31411  0.09199  0.33970  Biso   1.000  C
  C653     1.0000 0.23450  0.84731  0.25149  Biso   1.000  C
  H1190    1.0000 0.18400  0.87160  0.23369  Biso   1.000  H
  H1191    1.0000 0.18421  0.83049  0.22500  Biso   1.000  H
  H1192    1.0000 0.13821  0.98971  0.27899  Biso   1.000  H
  H1193    1.0000 0.15791  0.00811  0.31471  Biso   1.000  H
  C654     1.0000 0.10780  0.03540  0.29879  Biso   1.000  C
  C655     1.0000 0.38751  0.09050  0.29551  Biso   1.000  C
  H1194    1.0000 0.39391  0.03869  0.32229  Biso   1.000  H
  C656     1.0000 0.32620  0.12470  0.31611  Biso   1.000  C
  H1195    1.0000 0.28921  0.09199  0.35390  Biso   1.000  H
  C657     1.0000 0.25691  0.84681  0.20931  Biso   1.000  C
  H1196    1.0000 0.24269  0.86999  0.26779  Biso   1.000  H
  H1197    1.0000 0.24151  0.82419  0.26769  Biso   1.000  H
  C658     1.0000 0.10911  0.05009  0.25509  Biso   1.000  C
  H1198    1.0000 0.11681  0.05569  0.31808  Biso   1.000  H
  H1199    1.0000 0.08000  0.02881  0.30612  Biso   1.000  H
  C659     1.0000 0.42761  0.09030  0.27138  Biso   1.000  C
  C660     1.0000 0.36191  0.12359  0.29399  Biso   1.000  C
  C661     1.0000 0.30069  0.16001  0.31560  Biso   1.000  C
  N161     1.0000 0.30121  0.84270  0.21711  Biso   1.000  N
  H1200    1.0000 0.25161  0.87081  0.19400  Biso   1.000  H
  H1201    1.0000 0.24729  0.82521  0.19209  Biso   1.000  H
  N162     1.0000 0.08451  0.08639  0.24929  Biso   1.000  N
  H1202    1.0000 0.13721  0.05540  0.24741  Biso   1.000  H
  H1203    1.0000 0.09900  0.03009  0.23599  Biso   1.000  H
  N163     1.0000 0.42149  0.08310  0.22538  Biso   1.000  N
  H1204    1.0000 0.44511  0.07030  0.28300  Biso   1.000  H
  H1205    1.0000 0.44109  0.11531  0.27520  Biso   1.000  H
  H1206    1.0000 0.36961  0.14499  0.27769  Biso   1.000  H
  N164     1.0000 0.26370  0.15709  0.28800  Biso   1.000  N
  H1207    1.0000 0.29210  0.16581  0.34451  Biso   1.000  H
  H1208    1.0000 0.31710  0.18179  0.30580  Biso   1.000  H
  C662     1.0000 0.32629  0.83681  0.17830  Biso   1.000  C
  H1209    1.0000 0.30991  0.86410  0.23041  Biso   1.000  H
  H1210    1.0000 0.30510  0.82261  0.23449  Biso   1.000  H
  C663     1.0000 0.07510  0.09630  0.20450  Biso   1.000  C
  H1211    1.0000 0.09800  0.10619  0.26091  Biso   1.000  H
  H1212    1.0000 0.06119  0.08371  0.26339  Biso   1.000  H
  C664     1.0000 0.39391  0.05000  0.21730  Biso   1.000  C
  H1213    1.0000 0.44551  0.07831  0.21329  Biso   1.000  H
  H1214    1.0000 0.41120  0.10441  0.21329  Biso   1.000  H
  H1215    1.0000 0.24820  0.17791  0.29259  Biso   1.000  H
  H1216    1.0000 0.24951  0.13619  0.29599  Biso   1.000  H
  C665     1.0000 0.27180  0.15421  0.24219  Biso   1.000  C
  C666     1.0000 0.32891  0.87250  0.15061  Biso   1.000  C
  H1217    1.0000 0.35351  0.82920  0.18671  Biso   1.000  H
  H1218    1.0000 0.31481  0.81559  0.16181  Biso   1.000  H
  C667     1.0000 0.11179  0.09689  0.17591  Biso   1.000  C
  H1219    1.0000 0.05571  0.07750  0.19361  Biso   1.000  H
  H1220    1.0000 0.06220  0.12179  0.20380  Biso   1.000  H
  C668     1.0000 0.40611  0.02700  0.17989  Biso   1.000  C
  H1221    1.0000 0.36651  0.05980  0.21300  Biso   1.000  H
  H1222    1.0000 0.39360  0.03321  0.24219  Biso   1.000  H
  C669     1.0000 0.23170  0.15610  0.21730  Biso   1.000  C
  H1223    1.0000 0.28939  0.17529  0.23341  Biso   1.000  H
  H1224    1.0000 0.28550  0.12980  0.23611  Biso   1.000  H
  C670     1.0000 0.30471  0.87539  0.11432  Biso   1.000  C
  C671     1.0000 0.35710  0.90119  0.15939  Biso   1.000  C
  C672     1.0000 0.11919  0.06569  0.14921  Biso   1.000  C
  C673     1.0000 0.13840  0.12840  0.17560  Biso   1.000  C
  N165     1.0000 0.37841  0.99230  0.17550  Biso   1.000  N
  H1225    1.0000 0.40441  0.04289  0.15449  Biso   1.000  H
  H1226    1.0000 0.43400  0.01819  0.18311  Biso   1.000  H
  N166     1.0000 0.23931  0.15529  0.17171  Biso   1.000  N
  H1227    1.0000 0.21730  0.17989  0.22472  Biso   1.000  H
  H1228    1.0000 0.21459  0.13421  0.22519  Biso   1.000  H
  C674     1.0000 0.30821  0.90839  0.08799  Biso   1.000  C
  H1229    1.0000 0.28641  0.85571  0.10760  Biso   1.000  H
  H1230    1.0000 0.37390  0.89871  0.18311  Biso   1.000  H
  C675     1.0000 0.36069  0.93390  0.13370  Biso   1.000  C
  C676     1.0000 0.15219  0.06569  0.12100  Biso   1.000  C
  H1231    1.0000 0.10189  0.04420  0.15000  Biso   1.000  H
  C677     1.0000 0.17170  0.12791  0.14819  Biso   1.000  C
  H1232    1.0000 0.13401  0.14960  0.19339  Biso   1.000  H
  C678     1.0000 0.39260  0.96469  0.14271  Biso   1.000  C
  H1233    1.0000 0.37689  0.98000  0.20039  Biso   1.000  H
  H1234    1.0000 0.35351  0.00050  0.16882  Biso   1.000  H
  C679     1.0000 0.20129  0.16319  0.14631  Biso   1.000  C
  H1235    1.0000 0.25801  0.17310  0.16531  Biso   1.000  H
  H1236    1.0000 0.24921  0.13211  0.16449  Biso   1.000  H
  C680     1.0000 0.33591  0.93720  0.09891  Biso   1.000  C
  C681     1.0000 0.28270  0.91230  0.04839  Biso   1.000  C
  C682     1.0000 0.15779  0.03260  0.08929  Biso   1.000  C
  C683     1.0000 0.17861  0.09770  0.12091  Biso   1.000  C
  H1237    1.0000 0.39859  0.97880  0.11661  Biso   1.000  H
  H1238    1.0000 0.41741  0.95221  0.15220  Biso   1.000  H
  H1239    1.0000 0.18780  0.18619  0.15751  Biso   1.000  H
  H1240    1.0000 0.20860  0.16841  0.11689  Biso   1.000  H
  H1241    1.0000 0.33780  0.95941  0.08200  Biso   1.000  H
  N167     1.0000 0.23849  0.91650  0.05721  Biso   1.000  N
  H1242    1.0000 0.28690  0.88961  0.03069  Biso   1.000  H
  H1243    1.0000 0.29189  0.93501  0.03250  Biso   1.000  H
  N168     1.0000 0.18991  0.00580  0.10419  Biso   1.000  N
  H1244    1.0000 0.16531  0.04321  0.06179  Biso   1.000  H
  H1245    1.0000 0.13240  0.01851  0.08611  Biso   1.000  H
  H1246    1.0000 0.20071  0.09829  0.10241  Biso   1.000  H
  H1247    1.0000 0.22759  0.92320  0.03241  Biso   1.000  H
  H1248    1.0000 0.22991  0.89241  0.06239  Biso   1.000  H
  C684     1.0000 0.21700  0.94131  0.08939  Biso   1.000  C
  H1249    1.0000 0.22440  0.91880  0.03320  Biso   1.000  H
  H1250    1.0000 0.22909  0.89620  0.07191  Biso   1.000  H
  C685     1.0000 0.23670  0.95411  0.08360  Biso   1.000  C
  C686     1.0000 0.19691  0.97280  0.07519  Biso   1.000  C
  H1251    1.0000 0.18299  0.99659  0.12969  Biso   1.000  H
  H1252    1.0000 0.21301  0.01910  0.10718  Biso   1.000  H
  H1253    1.0000 0.23731  0.95000  0.10989  Biso   1.000  H
  H1254    1.0000 0.19809  0.92489  0.10461  Biso   1.000  H
  H1255    1.0000 0.23941  0.94810  0.11362  Biso   1.000  H
  H1256    1.0000 0.25871  0.97140  0.07551  Biso   1.000  H
  H1257    1.0000 0.21149  0.98271  0.05058  Biso   1.000  H
  H1258    1.0000 0.17051  0.96399  0.06520  Biso   1.000  H
  H1259    1.0000 0.17529  0.95379  0.07879  Biso   1.000  H
  H1260    1.0000 0.19608  0.98201  0.04600  Biso   1.000  H
  C687     1.0000 0.14260  0.28529  0.89269  Biso   1.000  C
  C688     1.0000 0.11069  0.31611  0.88371  Biso   1.000  C
  N169     1.0000 0.12841  0.25771  0.92551  Biso   1.000  N
  H1261    1.0000 0.14859  0.27121  0.86662  Biso   1.000  H
  H1262    1.0000 0.16741  0.29780  0.90221  Biso   1.000  H
  C689     1.0000 0.08591  0.31279  0.84888  Biso   1.000  C
  C690     1.0000 0.10710  0.34880  0.90940  Biso   1.000  C
  H1263    1.0000 0.10351  0.24949  0.91879  Biso   1.000  H
  H1264    1.0000 0.12689  0.26999  0.95040  Biso   1.000  H
  C691     1.0000 0.15611  0.22299  0.92990  Biso   1.000  C
  C692     1.0000 0.05821  0.34159  0.83800  Biso   1.000  C
  H1265    1.0000 0.08780  0.29060  0.83201  Biso   1.000  H
  C693     1.0000 0.07891  0.37749  0.90061  Biso   1.000  C
  H1266    1.0000 0.12390  0.35130  0.93309  Biso   1.000  H
  C694     1.0000 0.14391  0.20001  0.96731  Biso   1.000  C
  H1267    1.0000 0.15441  0.20710  0.90450  Biso   1.000  H
  H1268    1.0000 0.18400  0.23179  0.93309  Biso   1.000  H
  C695     1.0000 0.03270  0.33769  0.79840  Biso   1.000  C
  C696     1.0000 0.05471  0.37460  0.86429  Biso   1.000  C
  C697     1.0000 0.07629  0.41320  0.92831  Biso   1.000  C
  N170     1.0000 0.17149  0.16689  0.97539  Biso   1.000  N
  H1269    1.0000 0.11651  0.19019  0.96301  Biso   1.000  H
  H1270    1.0000 0.14360  0.21681  0.99220  Biso   1.000  H
  H1271    1.0000 0.03690  0.36040  0.78070  Biso   1.000  H
  H1272    1.0000 0.04189  0.31500  0.78251  Biso   1.000  H
  N171     1.0000 0.98849  0.33349  0.80721  Biso   1.000  N
  H1273    1.0000 0.03641  0.39431  0.85761  Biso   1.000  H
  N172     1.0000 0.05121  0.40731  0.96712  Biso   1.000  N
  H1274    1.0000 0.10351  0.42081  0.93671  Biso   1.000  H
  H1275    1.0000 0.06481  0.43440  0.91179  Biso   1.000  H
  H1276    1.0000 0.19551  0.17170  0.96330  Biso   1.000  H
  H1277    1.0000 0.16120  0.14561  0.96330  Biso   1.000  H
  C698     1.0000 0.17761  0.15969  0.02139  Biso   1.000  C
  H1278    1.0000 0.97759  0.32681  0.78241  Biso   1.000  H
  H1279    1.0000 0.97991  0.35760  0.81240  Biso   1.000  H
  C699     1.0000 0.96700  0.30871  0.83940  Biso   1.000  C
  H1280    1.0000 0.97440  0.33119  0.78321  Biso   1.000  H
  H1281    1.0000 0.97909  0.35381  0.82189  Biso   1.000  H
  C700     1.0000 0.98670  0.29591  0.83360  Biso   1.000  C
  H1282    1.0000 0.05991  0.38591  0.98039  Biso   1.000  H
  H1283    1.0000 0.05510  0.42740  0.98450  Biso   1.000  H
  C701     1.0000 0.00691  0.40320  0.95928  Biso   1.000  C
  C702     1.0000 0.13751  0.15951  0.04549  Biso   1.000  C
  H1284    1.0000 0.19511  0.17969  0.03301  Biso   1.000  H
  H1285    1.0000 0.19109  0.13470  0.02521  Biso   1.000  H
  C703     1.0000 0.94691  0.27719  0.82520  Biso   1.000  C
  H1286    1.0000 0.98731  0.29999  0.85990  Biso   1.000  H
  H1287    1.0000 0.94809  0.32509  0.85461  Biso   1.000  H
  H1288    1.0000 0.98941  0.30191  0.86359  Biso   1.000  H
  H1289    1.0000 0.00871  0.27859  0.82549  Biso   1.000  H
  H1290    1.0000 0.00161  0.37921  0.94400  Biso   1.000  H
  H1291    1.0000 0.99729  0.42481  0.94209  Biso   1.000  H
  C704     1.0000 0.98450  0.40271  0.00150  Biso   1.000  C
  C705     1.0000 0.11191  0.12639  0.04399  Biso   1.000  C
  C706     1.0000 0.12640  0.19010  0.07000  Biso   1.000  C
  N173     1.0000 0.93991  0.24421  0.85420  Biso   1.000  N
  H1292    1.0000 0.96149  0.26730  0.80059  Biso   1.000  H
  H1293    1.0000 0.92051  0.28599  0.81520  Biso   1.000  H
  H1294    1.0000 0.92529  0.29620  0.82880  Biso   1.000  H
  H1295    1.0000 0.94608  0.26800  0.79601  Biso   1.000  H
  N174     1.0000 0.94070  0.40160  0.99430  Biso   1.000  N
  H1296    1.0000 0.99269  0.37999  0.01780  Biso   1.000  H
  H1297    1.0000 0.99151  0.42580  0.01770  Biso   1.000  H
  C707     1.0000 0.07620  0.12531  0.06609  Biso   1.000  C
  H1298    1.0000 0.11961  0.10499  0.02770  Biso   1.000  H
  C708     1.0000 0.08950  0.19071  0.09200  Biso   1.000  C
  H1299    1.0000 0.14391  0.21130  0.07229  Biso   1.000  H
  H1300    1.0000 0.93299  0.25340  0.87970  Biso   1.000  H
  H1301    1.0000 0.96301  0.23089  0.85719  Biso   1.000  H
  C709     1.0000 0.90779  0.21739  0.83930  Biso   1.000  C
  H1302    1.0000 0.93400  0.37839  0.98370  Biso   1.000  H
  H1303    1.0000 0.93421  0.41950  0.97501  Biso   1.000  H
  C710     1.0000 0.91631  0.40871  0.03390  Biso   1.000  C
  C711     1.0000 0.06411  0.15800  0.08971  Biso   1.000  C
  C712     1.0000 0.05069  0.09001  0.06561  Biso   1.000  C
  C713     1.0000 0.07739  0.22479  0.11849  Biso   1.000  C
  C714     1.0000 0.90219  0.18430  0.87101  Biso   1.000  C
  H1304    1.0000 0.91531  0.20681  0.81180  Biso   1.000  H
  H1305    1.0000 0.88240  0.23150  0.83609  Biso   1.000  H
  C715     1.0000 0.91890  0.37559  0.06551  Biso   1.000  C
  H1306    1.0000 0.88809  0.41271  0.02610  Biso   1.000  H
  H1307    1.0000 0.92599  0.43239  0.04740  Biso   1.000  H
  H1308    1.0000 0.03921  0.15800  0.10391  Biso   1.000  H
  N175     1.0000 0.01370  0.09289  0.03801  Biso   1.000  N
  H1309    1.0000 0.04210  0.08420  0.09452  Biso   1.000  H
  H1310    1.0000 0.06710  0.06820  0.05580  Biso   1.000  H
  N176     1.0000 0.07821  0.26229  0.09321  Biso   1.000  N
  H1311    1.0000 0.09590  0.22710  0.14249  Biso   1.000  H
  H1312    1.0000 0.05020  0.22060  0.12960  Biso   1.000  H
  C716     1.0000 0.86919  0.18430  0.89921  Biso   1.000  C
  C717     1.0000 0.92861  0.15231  0.87091  Biso   1.000  C
  C718     1.0000 0.94621  0.37641  0.09970  Biso   1.000  C
  C719     1.0000 0.89250  0.34381  0.06039  Biso   1.000  C
  C720     1.0000 0.02180  0.09581  0.99220  Biso   1.000  C
  H1313    1.0000 0.99820  0.07210  0.04259  Biso   1.000  H
  H1314    1.0000 0.99951  0.11380  0.04600  Biso   1.000  H
  H1315    1.0000 0.10250  0.26471  0.08089  Biso   1.000  H
  H1316    1.0000 0.05970  0.26069  0.07249  Biso   1.000  H
  C721     1.0000 0.06990  0.29850  0.11871  Biso   1.000  C
  C722     1.0000 0.86179  0.15310  0.92589  Biso   1.000  C
  H1317    1.0000 0.85189  0.20581  0.90001  Biso   1.000  H
  H1318    1.0000 0.95071  0.15170  0.85239  Biso   1.000  H
  C723     1.0000 0.92170  0.12211  0.89820  Biso   1.000  C
  C724     1.0000 0.94739  0.34501  0.12890  Biso   1.000  C
  H1319    1.0000 0.96359  0.39760  0.10321  Biso   1.000  H
  H1320    1.0000 0.87400  0.34320  0.03791  Biso   1.000  H
  C725     1.0000 0.89409  0.31331  0.08910  Biso   1.000  C
  C726     1.0000 0.98170  0.09391  0.96731  Biso   1.000  C
  H1321    1.0000 0.03939  0.07470  0.98341  Biso   1.000  H
  H1322    1.0000 0.03550  0.12021  0.98609  Biso   1.000  H
  C727     1.0000 0.02499  0.30320  0.12711  Biso   1.000  C
  H1323    1.0000 0.07991  0.32110  0.10330  Biso   1.000  H
  H1324    1.0000 0.08439  0.29710  0.14561  Biso   1.000  H
  C728     1.0000 0.88840  0.12161  0.92560  Biso   1.000  C
  C729     1.0000 0.82510  0.15371  0.95451  Biso   1.000  C
  C730     1.0000 0.95129  0.08680  0.89628  Biso   1.000  C
  C731     1.0000 0.92121  0.31401  0.12250  Biso   1.000  C
  C732     1.0000 0.97580  0.34509  0.16531  Biso   1.000  C
  C733     1.0000 0.86581  0.27850  0.08309  Biso   1.000  C
  N177     1.0000 0.98931  0.09470  0.92169  Biso   1.000  N
  H1325    1.0000 0.96730  0.07009  0.97469  Biso   1.000  H
  H1326    1.0000 0.96459  0.11581  0.97520  Biso   1.000  H
  N178     1.0000 0.01909  0.33850  0.15299  Biso   1.000  N
  H1327    1.0000 0.01029  0.30570  0.10040  Biso   1.000  H
  H1328    1.0000 0.01461  0.28060  0.14211  Biso   1.000  H
  H1329    1.0000 0.88401  0.10041  0.94340  Biso   1.000  H
  N179     1.0000 0.83451  0.16360  0.99930  Biso   1.000  N
  H1330    1.0000 0.80571  0.17249  0.94359  Biso   1.000  H
  H1331    1.0000 0.81220  0.12820  0.95381  Biso   1.000  H
  H1332    1.0000 0.93780  0.06379  0.90749  Biso   1.000  H
  H1333    1.0000 0.95860  0.08161  0.86690  Biso   1.000  H
  H1334    1.0000 0.92179  0.29311  0.14131  Biso   1.000  H
  H1335    1.0000 0.96761  0.32489  0.18511  Biso   1.000  H
  H1336    1.0000 0.97370  0.36999  0.17980  Biso   1.000  H
  N180     1.0000 0.88389  0.24940  0.05431  Biso   1.000  N
  H1337    1.0000 0.86039  0.26649  0.11059  Biso   1.000  H
  H1338    1.0000 0.84011  0.28739  0.07150  Biso   1.000  H
  H1339    1.0000 0.00801  0.07691  0.91529  Biso   1.000  H
  H1340    1.0000 0.99921  0.11791  0.91449  Biso   1.000  H
  H1341    1.0000 0.02801  0.35909  0.13851  Biso   1.000  H
  H1342    1.0000 0.03410  0.33661  0.17649  Biso   1.000  H
  H1343    1.0000 0.84800  0.14380  0.01089  Biso   1.000  H
  H1344    1.0000 0.81119  0.16631  0.01340  Biso   1.000  H
  C734     1.0000 0.85911  0.19990  0.00509  Biso   1.000  C
  C735     1.0000 0.85780  0.21459  0.04880  Biso   1.000  C
  H1345    1.0000 0.90791  0.24191  0.06469  Biso   1.000  H
  H1346    1.0000 0.88821  0.26031  0.02900  Biso   1.000  H
  H1347    1.0000 0.88721  0.19459  0.99739  Biso   1.000  H
  H1348    1.0000 0.84900  0.21990  0.98599  Biso   1.000  H
  H1349    1.0000 0.86681  0.19430  0.06809  Biso   1.000  H
  H1350    1.0000 0.83000  0.22121  0.05609  Biso   1.000  H
  C736     1.0000 0.85740  0.71471  0.89269  Biso   1.000  C
  C737     1.0000 0.88931  0.68389  0.88371  Biso   1.000  C
  N181     1.0000 0.87159  0.74229  0.92551  Biso   1.000  N
  H1351    1.0000 0.85141  0.72879  0.86662  Biso   1.000  H
  H1352    1.0000 0.83259  0.70220  0.90221  Biso   1.000  H
  C738     1.0000 0.91409  0.68721  0.84888  Biso   1.000  C
  C739     1.0000 0.89290  0.65120  0.90940  Biso   1.000  C
  H1353    1.0000 0.89649  0.75051  0.91879  Biso   1.000  H
  H1354    1.0000 0.87311  0.73001  0.95040  Biso   1.000  H
  C740     1.0000 0.84389  0.77701  0.92990  Biso   1.000  C
  C741     1.0000 0.94179  0.65841  0.83800  Biso   1.000  C
  H1355    1.0000 0.91220  0.70940  0.83201  Biso   1.000  H
  C742     1.0000 0.92109  0.62251  0.90061  Biso   1.000  C
  H1356    1.0000 0.87610  0.64870  0.93309  Biso   1.000  H
  C743     1.0000 0.85609  0.79999  0.96731  Biso   1.000  C
  H1357    1.0000 0.84559  0.79290  0.90450  Biso   1.000  H
  H1358    1.0000 0.81600  0.76821  0.93309  Biso   1.000  H
  C744     1.0000 0.96730  0.66231  0.79840  Biso   1.000  C
  C745     1.0000 0.94529  0.62540  0.86429  Biso   1.000  C
  C746     1.0000 0.92371  0.58680  0.92831  Biso   1.000  C
  N182     1.0000 0.82851  0.83311  0.97539  Biso   1.000  N
  H1359    1.0000 0.88349  0.80981  0.96301  Biso   1.000  H
  H1360    1.0000 0.85640  0.78319  0.99220  Biso   1.000  H
  H1361    1.0000 0.96310  0.63960  0.78070  Biso   1.000  H
  H1362    1.0000 0.95811  0.68500  0.78251  Biso   1.000  H
  N183     1.0000 0.01151  0.66651  0.80721  Biso   1.000  N
  H1363    1.0000 0.96359  0.60569  0.85761  Biso   1.000  H
  N184     1.0000 0.94879  0.59269  0.96712  Biso   1.000  N
  H1364    1.0000 0.89649  0.57919  0.93671  Biso   1.000  H
  H1365    1.0000 0.93519  0.56560  0.91179  Biso   1.000  H
  H1366    1.0000 0.80449  0.82830  0.96330  Biso   1.000  H
  H1367    1.0000 0.83880  0.85439  0.96330  Biso   1.000  H
  C747     1.0000 0.82239  0.84031  0.02139  Biso   1.000  C
  H1368    1.0000 0.02241  0.67319  0.78241  Biso   1.000  H
  H1369    1.0000 0.02009  0.64240  0.81240  Biso   1.000  H
  C748     1.0000 0.03300  0.69129  0.83940  Biso   1.000  C
  H1370    1.0000 0.02560  0.66881  0.78321  Biso   1.000  H
  H1371    1.0000 0.02091  0.64619  0.82189  Biso   1.000  H
  C749     1.0000 0.01330  0.70409  0.83360  Biso   1.000  C
  H1372    1.0000 0.94009  0.61409  0.98039  Biso   1.000  H
  H1373    1.0000 0.94490  0.57260  0.98450  Biso   1.000  H
  C750     1.0000 0.99309  0.59680  0.95928  Biso   1.000  C
  C751     1.0000 0.86249  0.84049  0.04549  Biso   1.000  C
  H1374    1.0000 0.80489  0.82031  0.03301  Biso   1.000  H
  H1375    1.0000 0.80891  0.86530  0.02521  Biso   1.000  H
  C752     1.0000 0.05309  0.72281  0.82520  Biso   1.000  C
  H1376    1.0000 0.01269  0.70001  0.85990  Biso   1.000  H
  H1377    1.0000 0.05191  0.67491  0.85461  Biso   1.000  H
  H1378    1.0000 0.01059  0.69809  0.86359  Biso   1.000  H
  H1379    1.0000 0.99129  0.72141  0.82549  Biso   1.000  H
  H1380    1.0000 0.99839  0.62079  0.94400  Biso   1.000  H
  H1381    1.0000 0.00271  0.57519  0.94209  Biso   1.000  H
  C753     1.0000 0.01550  0.59729  0.00150  Biso   1.000  C
  C754     1.0000 0.88809  0.87361  0.04399  Biso   1.000  C
  C755     1.0000 0.87360  0.80990  0.07000  Biso   1.000  C
  N185     1.0000 0.06009  0.75579  0.85420  Biso   1.000  N
  H1382    1.0000 0.03851  0.73270  0.80059  Biso   1.000  H
  H1383    1.0000 0.07949  0.71401  0.81520  Biso   1.000  H
  H1384    1.0000 0.07471  0.70380  0.82880  Biso   1.000  H
  H1385    1.0000 0.05392  0.73200  0.79601  Biso   1.000  H
  N186     1.0000 0.05930  0.59840  0.99430  Biso   1.000  N
  H1386    1.0000 0.00731  0.62001  0.01780  Biso   1.000  H
  H1387    1.0000 0.00849  0.57420  0.01770  Biso   1.000  H
  C756     1.0000 0.92380  0.87469  0.06609  Biso   1.000  C
  H1388    1.0000 0.88039  0.89501  0.02770  Biso   1.000  H
  C757     1.0000 0.91050  0.80929  0.09200  Biso   1.000  C
  H1389    1.0000 0.85609  0.78870  0.07229  Biso   1.000  H
  H1390    1.0000 0.06701  0.74660  0.87970  Biso   1.000  H
  H1391    1.0000 0.03699  0.76911  0.85719  Biso   1.000  H
  C758     1.0000 0.09221  0.78261  0.83930  Biso   1.000  C
  H1392    1.0000 0.06600  0.62161  0.98370  Biso   1.000  H
  H1393    1.0000 0.06579  0.58050  0.97501  Biso   1.000  H
  C759     1.0000 0.08369  0.59129  0.03390  Biso   1.000  C
  C760     1.0000 0.93589  0.84200  0.08971  Biso   1.000  C
  C761     1.0000 0.94931  0.90999  0.06561  Biso   1.000  C
  C762     1.0000 0.92261  0.77521  0.11849  Biso   1.000  C
  C763     1.0000 0.09781  0.81570  0.87101  Biso   1.000  C
  H1394    1.0000 0.08469  0.79319  0.81180  Biso   1.000  H
  H1395    1.0000 0.11760  0.76850  0.83609  Biso   1.000  H
  C764     1.0000 0.08110  0.62441  0.06551  Biso   1.000  C
  H1396    1.0000 0.11191  0.58729  0.02610  Biso   1.000  H
  H1397    1.0000 0.07401  0.56761  0.04740  Biso   1.000  H
  H1398    1.0000 0.96079  0.84200  0.10391  Biso   1.000  H
  N187     1.0000 0.98630  0.90711  0.03801  Biso   1.000  N
  H1399    1.0000 0.95790  0.91580  0.09452  Biso   1.000  H
  H1400    1.0000 0.93290  0.93180  0.05580  Biso   1.000  H
  N188     1.0000 0.92179  0.73771  0.09321  Biso   1.000  N
  H1401    1.0000 0.90410  0.77290  0.14249  Biso   1.000  H
  H1402    1.0000 0.94980  0.77940  0.12960  Biso   1.000  H
  C765     1.0000 0.13081  0.81570  0.89921  Biso   1.000  C
  C766     1.0000 0.07139  0.84769  0.87091  Biso   1.000  C
  C767     1.0000 0.05379  0.62359  0.09970  Biso   1.000  C
  C768     1.0000 0.10750  0.65619  0.06039  Biso   1.000  C
  C769     1.0000 0.97820  0.90419  0.99220  Biso   1.000  C
  H1403    1.0000 0.00180  0.92790  0.04259  Biso   1.000  H
  H1404    1.0000 0.00049  0.88620  0.04600  Biso   1.000  H
  H1405    1.0000 0.89750  0.73529  0.08089  Biso   1.000  H
  H1406    1.0000 0.94030  0.73931  0.07249  Biso   1.000  H
  C770     1.0000 0.93010  0.70150  0.11871  Biso   1.000  C
  C771     1.0000 0.13821  0.84690  0.92589  Biso   1.000  C
  H1407    1.0000 0.14811  0.79419  0.90001  Biso   1.000  H
  H1408    1.0000 0.04929  0.84830  0.85239  Biso   1.000  H
  C772     1.0000 0.07830  0.87789  0.89820  Biso   1.000  C
  C773     1.0000 0.05261  0.65499  0.12890  Biso   1.000  C
  H1409    1.0000 0.03641  0.60240  0.10321  Biso   1.000  H
  H1410    1.0000 0.12600  0.65680  0.03791  Biso   1.000  H
  C774     1.0000 0.10591  0.68669  0.08910  Biso   1.000  C
  C775     1.0000 0.01830  0.90609  0.96731  Biso   1.000  C
  H1411    1.0000 0.96061  0.92530  0.98341  Biso   1.000  H
  H1412    1.0000 0.96450  0.87979  0.98609  Biso   1.000  H
  C776     1.0000 0.97501  0.69680  0.12711  Biso   1.000  C
  H1413    1.0000 0.92009  0.67890  0.10330  Biso   1.000  H
  H1414    1.0000 0.91561  0.70290  0.14561  Biso   1.000  H
  C777     1.0000 0.11160  0.87839  0.92560  Biso   1.000  C
  C778     1.0000 0.17490  0.84629  0.95451  Biso   1.000  C
  C779     1.0000 0.04871  0.91320  0.89628  Biso   1.000  C
  C780     1.0000 0.07879  0.68599  0.12250  Biso   1.000  C
  C781     1.0000 0.02420  0.65491  0.16531  Biso   1.000  C
  C782     1.0000 0.13419  0.72150  0.08309  Biso   1.000  C
  N189     1.0000 0.01069  0.90530  0.92169  Biso   1.000  N
  H1415    1.0000 0.03270  0.92991  0.97469  Biso   1.000  H
  H1416    1.0000 0.03541  0.88419  0.97520  Biso   1.000  H
  N190     1.0000 0.98091  0.66150  0.15299  Biso   1.000  N
  H1417    1.0000 0.98971  0.69430  0.10040  Biso   1.000  H
  H1418    1.0000 0.98539  0.71940  0.14211  Biso   1.000  H
  H1419    1.0000 0.11599  0.89959  0.94340  Biso   1.000  H
  N191     1.0000 0.16549  0.83640  0.99930  Biso   1.000  N
  H1420    1.0000 0.19429  0.82751  0.94359  Biso   1.000  H
  H1421    1.0000 0.18780  0.87180  0.95381  Biso   1.000  H
  H1422    1.0000 0.06220  0.93621  0.90749  Biso   1.000  H
  H1423    1.0000 0.04140  0.91839  0.86690  Biso   1.000  H
  H1424    1.0000 0.07821  0.70689  0.14131  Biso   1.000  H
  H1425    1.0000 0.03239  0.67511  0.18511  Biso   1.000  H
  H1426    1.0000 0.02630  0.63001  0.17980  Biso   1.000  H
  N192     1.0000 0.11611  0.75060  0.05431  Biso   1.000  N
  H1427    1.0000 0.13961  0.73351  0.11059  Biso   1.000  H
  H1428    1.0000 0.15989  0.71261  0.07150  Biso   1.000  H
  H1429    1.0000 0.99199  0.92309  0.91529  Biso   1.000  H
  H1430    1.0000 0.00079  0.88209  0.91449  Biso   1.000  H
  H1431    1.0000 0.97199  0.64091  0.13851  Biso   1.000  H
  H1432    1.0000 0.96590  0.66339  0.17649  Biso   1.000  H
  H1433    1.0000 0.15200  0.85620  0.01089  Biso   1.000  H
  H1434    1.0000 0.18881  0.83369  0.01340  Biso   1.000  H
  C783     1.0000 0.14089  0.80010  0.00509  Biso   1.000  C
  C784     1.0000 0.14220  0.78541  0.04880  Biso   1.000  C
  H1435    1.0000 0.09209  0.75809  0.06469  Biso   1.000  H
  H1436    1.0000 0.11179  0.73969  0.02900  Biso   1.000  H
  H1437    1.0000 0.11279  0.80541  0.99739  Biso   1.000  H
  H1438    1.0000 0.15100  0.78010  0.98599  Biso   1.000  H
  H1439    1.0000 0.13319  0.80570  0.06809  Biso   1.000  H
  H1440    1.0000 0.17000  0.77879  0.05609  Biso   1.000  H
