data_image0
_cell_length_a       11.991
_cell_length_b       16.404
_cell_length_c       37.7
_cell_angle_alpha    90
_cell_angle_beta     90
_cell_angle_gamma    90

_symmetry_space_group_name_H-M    "P 1"
_symmetry_int_tables_number       1

loop_
  _symmetry_equiv_pos_as_xyz
  'x, y, z'

loop_
  _atom_site_label
  _atom_site_occupancy
  _atom_site_fract_x
  _atom_site_fract_y
  _atom_site_fract_z
  _atom_site_thermal_displace_type
  _atom_site_B_iso_or_equiv
  _atom_site_type_symbol
  C1       1.0000 0.42916  0.42679  0.47830  Biso   1.000  C
  C2       1.0000 0.31816  0.45641  0.49340  Biso   1.000  C
  O1       1.0000 0.47052  0.47549  0.44926  Biso   1.000  O
  H1       1.0000 0.48536  0.42679  0.49761  Biso   1.000  H
  H2       1.0000 0.42015  0.36979  0.47011  Biso   1.000  H
  C3       1.0000 0.23209  0.47769  0.46472  Biso   1.000  C
  O2       1.0000 0.34201  0.52871  0.51345  Biso   1.000  O
  H3       1.0000 0.28672  0.41380  0.50950  Biso   1.000  H
  H4       1.0000 0.47694  0.52408  0.45581  Biso   1.000  H
  O3       1.0000 0.20407  0.40673  0.44438  Biso   1.000  O
  H5       1.0000 0.26345  0.52042  0.44870  Biso   1.000  H
  C4       1.0000 0.12776  0.50963  0.48231  Biso   1.000  C
  C5       1.0000 0.24869  0.56261  0.53069  Biso   1.000  C
  C6       1.0000 0.22092  0.41392  0.40732  Biso   1.000  C
  O4       1.0000 0.04679  0.53298  0.45706  Biso   1.000  O
  H6       1.0000 0.09599  0.46653  0.49801  Biso   1.000  H
  C7       1.0000 0.15937  0.58370  0.50459  Biso   1.000  C
  O5       1.0000 0.20407  0.50853  0.55679  Biso   1.000  O
  H7       1.0000 0.27279  0.61394  0.54281  Biso   1.000  H
  C8       1.0000 0.11517  0.38168  0.38859  Biso   1.000  C
  O6       1.0000 0.31482  0.37241  0.39607  Biso   1.000  O
  H8       1.0000 0.23009  0.47293  0.40141  Biso   1.000  H
  H9       1.0000 0.07697  0.53798  0.43711  Biso   1.000  H
  O7       1.0000 0.06722  0.61869  0.52223  Biso   1.000  O
  H10      1.0000 0.19039  0.62588  0.48820  Biso   1.000  H
  C9       1.0000 0.25536  0.51353  0.59040  Biso   1.000  C
  C10      1.0000 0.10741  0.29090  0.39289  Biso   1.000  C
  O8       1.0000 0.02052  0.42319  0.40218  Biso   1.000  O
  H11      1.0000 0.12151  0.39423  0.36271  Biso   1.000  H
  C11      1.0000 0.31290  0.28688  0.40223  Biso   1.000  C
  H12      1.0000 0.02494  0.64082  0.50729  Biso   1.000  H
  H13      1.0000 0.33467  0.53133  0.58769  Biso   1.000  H
  C12      1.0000 0.19281  0.57279  0.61340  Biso   1.000  C
  C13      1.0000 0.25052  0.42819  0.60666  Biso   1.000  C
  C14      1.0000 0.21716  0.24970  0.38273  Biso   1.000  C
  O9       1.0000 0.01626  0.26091  0.37223  Biso   1.000  O
  H14      1.0000 0.09190  0.27871  0.41849  Biso   1.000  H
  H15      1.0000 0.03561  0.47293  0.40459  Biso   1.000  H
  H16      1.0000 0.30473  0.27621  0.42820  Biso   1.000  H
  C15      1.0000 0.42415  0.25421  0.38944  Biso   1.000  C
  O10      1.0000 0.20390  0.65240  0.59979  Biso   1.000  O
  H17      1.0000 0.11200  0.55791  0.61239  Biso   1.000  H
  C16      1.0000 0.22959  0.56858  0.65191  Biso   1.000  C
  O11      1.0000 0.29689  0.43300  0.64273  Biso   1.000  O
  H18      1.0000 0.17088  0.41039  0.60809  Biso   1.000  H
  C17      1.0000 0.31582  0.36448  0.58820  Biso   1.000  C
  O12      1.0000 0.19940  0.16569  0.39294  Biso   1.000  O
  H19      1.0000 0.22942  0.25360  0.35660  Biso   1.000  H
  H20      1.0000 0.03661  0.25549  0.35101  Biso   1.000  H
  N1       1.0000 0.51664  0.27963  0.41127  Biso   1.000  N
  H21      1.0000 0.42107  0.19392  0.38910  Biso   1.000  H
  H22      1.0000 0.43708  0.27298  0.36480  Biso   1.000  H
  H23      1.0000 0.16246  0.68422  0.61130  Biso   1.000  H
  O13      1.0000 0.16271  0.62113  0.67289  Biso   1.000  O
  H24      1.0000 0.30815  0.58888  0.65310  Biso   1.000  H
  C18      1.0000 0.22859  0.48049  0.66599  Biso   1.000  C
  O14      1.0000 0.30431  0.28798  0.60289  Biso   1.000  O
  H25      1.0000 0.29189  0.36229  0.56310  Biso   1.000  H
  H26      1.0000 0.39555  0.38003  0.58859  Biso   1.000  H
  C19      1.0000 0.23726  0.10333  0.36997  Biso   1.000  C
  C20      1.0000 0.54666  0.24000  0.44355  Biso   1.000  C
  C21      1.0000 0.59461  0.34040  0.40440  Biso   1.000  C
  H27      1.0000 0.13510  0.59461  0.68979  Biso   1.000  H
  O15      1.0000 0.12092  0.45032  0.66793  Biso   1.000  O
  H28      1.0000 0.26220  0.47982  0.69029  Biso   1.000  H
  H29      1.0000 0.35585  0.28011  0.61761  Biso   1.000  H
  O16      1.0000 0.32725  0.06200  0.38621  Biso   1.000  O
  C22      1.0000 0.14127  0.04529  0.36321  Biso   1.000  C
  H30      1.0000 0.26253  0.12771  0.34700  Biso   1.000  H
  O17      1.0000 0.49621  0.18063  0.45475  Biso   1.000  O
  C23      1.0000 0.63698  0.28408  0.45881  Biso   1.000  C
  O18      1.0000 0.59812  0.38009  0.37767  Biso   1.000  O
  C24      1.0000 0.67025  0.34492  0.43560  Biso   1.000  C
  C25      1.0000 0.08932  0.40801  0.69910  Biso   1.000  C
  C26      1.0000 0.29931  0.02950  0.42005  Biso   1.000  C
  O19      1.0000 0.05079  0.08912  0.34801  Biso   1.000  O
  C27      1.0000 0.10650  0.00189  0.39679  Biso   1.000  C
  H31      1.0000 0.16662  0.00341  0.34570  Biso   1.000  H
  C28      1.0000 0.69677  0.27140  0.49080  Biso   1.000  C
  C29      1.0000 0.75957  0.39722  0.44369  Biso   1.000  C
  H32      1.0000 0.10233  0.44392  0.72011  Biso   1.000  H
  C30      1.0000 0.14936  0.32358  0.70531  Biso   1.000  C
  C31      1.0000 0.96372  0.39271  0.69509  Biso   1.000  C
  H33      1.0000 0.26945  0.07468  0.43509  Biso   1.000  H
  C32      1.0000 0.20791  0.96598  0.41541  Biso   1.000  C
  C33      1.0000 0.40297  0.99653  0.43745  Biso   1.000  C
  H34      1.0000 0.02343  0.12058  0.36329  Biso   1.000  H
  H35      1.0000 0.07122  0.04267  0.41300  Biso   1.000  H
  O20      1.0000 0.02719  0.94178  0.38891  Biso   1.000  O
  H36      1.0000 0.67634  0.22872  0.50660  Biso   1.000  H
  C34      1.0000 0.78467  0.32193  0.49859  Biso   1.000  C
  C35      1.0000 0.81828  0.38381  0.47379  Biso   1.000  C
  H37      1.0000 0.77833  0.44099  0.42830  Biso   1.000  H
  O21      1.0000 0.10008  0.28969  0.73645  Biso   1.000  O
  H38      1.0000 0.13343  0.28688  0.68480  Biso   1.000  H
  C36      1.0000 0.27287  0.32772  0.71080  Biso   1.000  C
  O22      1.0000 0.90368  0.46623  0.69326  Biso   1.000  O
  H39      1.0000 0.95163  0.36253  0.67239  Biso   1.000  H
  C37      1.0000 0.91519  0.34260  0.72480  Biso   1.000  C
  O23      1.0000 0.17046  0.93648  0.44923  Biso   1.000  O
  H40      1.0000 0.23743  0.91929  0.40119  Biso   1.000  H
  H41      1.0000 0.46351  0.03731  0.43549  Biso   1.000  H
  O24      1.0000 0.43858  0.92221  0.42159  Biso   1.000  O
  H42      1.0000 0.38812  0.98720  0.46300  Biso   1.000  H
  H43      1.0000 0.03369  0.90301  0.40329  Biso   1.000  H
  H44      1.0000 0.82337  0.31602  0.52040  Biso   1.000  H
  H45      1.0000 0.88250  0.41581  0.47859  Biso   1.000  H
  C38      1.0000 0.98966  0.26792  0.73310  Biso   1.000  C
  O25      1.0000 0.30606  0.38448  0.73761  Biso   1.000  O
  H46      1.0000 0.30031  0.27292  0.71740  Biso   1.000  H
  H47      1.0000 0.30881  0.34309  0.68820  Biso   1.000  H
  H48      1.0000 0.88141  0.47909  0.71361  Biso   1.000  H
  O26      1.0000 0.80744  0.31828  0.71642  Biso   1.000  O
  H49      1.0000 0.91168  0.37753  0.74650  Biso   1.000  H
  C39      1.0000 0.20899  0.85772  0.45859  Biso   1.000  C
  H50      1.0000 0.41665  0.92051  0.40040  Biso   1.000  H
  O27      1.0000 0.97223  0.21013  0.70589  Biso   1.000  O
  H51      1.0000 0.96439  0.24360  0.75610  Biso   1.000  H
  H52      1.0000 0.25578  0.38789  0.75300  Biso   1.000  H
  H53      1.0000 0.80844  0.27018  0.70881  Biso   1.000  H
  O28      1.0000 0.27070  0.85942  0.49013  Biso   1.000  O
  C40      1.0000 0.10766  0.80078  0.46167  Biso   1.000  C
  H54      1.0000 0.25819  0.83711  0.43920  Biso   1.000  H
  C41      1.0000 0.94521  0.12698  0.71594  Biso   1.000  C
  C42      1.0000 0.20999  0.88210  0.52109  Biso   1.000  C
  O29      1.0000 0.04378  0.80572  0.43090  Biso   1.000  O
  C43      1.0000 0.04103  0.82230  0.49379  Biso   1.000  C
  H55      1.0000 0.13518  0.74360  0.46430  Biso   1.000  H
  C44      1.0000 0.84330  0.10369  0.69573  Biso   1.000  C
  C45      1.0000 0.04161  0.06950  0.70788  Biso   1.000  C
  H56      1.0000 0.92853  0.12509  0.74191  Biso   1.000  H
  C46      1.0000 0.11033  0.82620  0.52626  Biso   1.000  C
  H57      1.0000 0.18330  0.93959  0.51849  Biso   1.000  H
  C47      1.0000 0.29347  0.87790  0.55101  Biso   1.000  C
  H58      1.0000 0.04020  0.75951  0.42130  Biso   1.000  H
  O30      1.0000 0.95588  0.76067  0.50003  Biso   1.000  O
  H59      1.0000 0.00409  0.87631  0.49000  Biso   1.000  H
  C48      1.0000 0.81027  0.01579  0.70398  Biso   1.000  C
  O31      1.0000 0.75040  0.15508  0.70504  Biso   1.000  O
  H60      1.0000 0.85848  0.10888  0.66971  Biso   1.000  H
  O32      1.0000 0.00500  0.98830  0.71772  Biso   1.000  O
  H61      1.0000 0.05613  0.07041  0.68180  Biso   1.000  H
  C49      1.0000 0.14920  0.08650  0.72690  Biso   1.000  C
  O33      1.0000 0.04687  0.85522  0.55613  Biso   1.000  O
  H62      1.0000 0.13819  0.77012  0.53170  Biso   1.000  H
  O34      1.0000 0.33175  0.79682  0.55586  Biso   1.000  O
  H63      1.0000 0.35760  0.91380  0.54560  Biso   1.000  H
  H64      1.0000 0.25836  0.89752  0.57321  Biso   1.000  H
  H65      1.0000 0.89267  0.78267  0.49989  Biso   1.000  H
  C50      1.0000 0.91302  0.96031  0.69836  Biso   1.000  C
  O35      1.0000 0.72221  0.98842  0.68212  Biso   1.000  O
  H66      1.0000 0.78634  0.01231  0.72939  Biso   1.000  H
  H67      1.0000 0.70845  0.13009  0.71920  Biso   1.000  H
  O36      1.0000 0.13293  0.09699  0.76379  Biso   1.000  O
  H68      1.0000 0.20148  0.04078  0.72289  Biso   1.000  H
  H69      1.0000 0.18339  0.13649  0.71700  Biso   1.000  H
  C51      1.0000 0.01343  0.79609  0.58098  Biso   1.000  C
  H70      1.0000 0.31607  0.76890  0.53790  Biso   1.000  H
  O37      1.0000 0.93579  0.95873  0.66196  Biso   1.000  O
  H71      1.0000 0.89417  0.90393  0.70639  Biso   1.000  H
  H72      1.0000 0.72329  0.93721  0.68109  Biso   1.000  H
  H73      1.0000 0.19498  0.10229  0.77379  Biso   1.000  H
  C52      1.0000 0.89083  0.80682  0.59045  Biso   1.000  C
  O38      1.0000 0.08448  0.80017  0.61188  Biso   1.000  O
  H74      1.0000 0.02293  0.74122  0.56989  Biso   1.000  H
  C53      1.0000 0.95522  0.88253  0.64451  Biso   1.000  C
  O39      1.0000 0.82554  0.81242  0.55987  Biso   1.000  O
  C54      1.0000 0.87449  0.88149  0.61332  Biso   1.000  C
  H75      1.0000 0.86607  0.75792  0.60419  Biso   1.000  H
  C55      1.0000 0.07447  0.87332  0.63199  Biso   1.000  C
  H76      1.0000 0.93662  0.83687  0.66109  Biso   1.000  H
  H77      1.0000 0.86523  0.80261  0.54199  Biso   1.000  H
  O40      1.0000 0.76349  0.88350  0.62557  Biso   1.000  O
  H78      1.0000 0.88817  0.93099  0.59849  Biso   1.000  H
  H79      1.0000 0.09499  0.92099  0.61679  Biso   1.000  H
  C56      1.0000 0.15537  0.86668  0.66220  Biso   1.000  C
  H80      1.0000 0.72229  0.90368  0.60979  Biso   1.000  H
  O41      1.0000 0.26920  0.88460  0.65000  Biso   1.000  O
  H81      1.0000 0.13427  0.90557  0.68119  Biso   1.000  H
  H82      1.0000 0.15270  0.81090  0.67231  Biso   1.000  H
  H83      1.0000 0.29080  0.84717  0.63639  Biso   1.000  H
  C57      1.0000 0.54099  0.67770  0.50621  Biso   1.000  C
  C58      1.0000 0.61029  0.67380  0.47374  Biso   1.000  C
  O42      1.0000 0.45584  0.73933  0.49997  Biso   1.000  O
  H84      1.0000 0.50404  0.62369  0.51000  Biso   1.000  H
  C59      1.0000 0.60771  0.69922  0.53833  Biso   1.000  C
  O43      1.0000 0.54691  0.64478  0.44387  Biso   1.000  O
  H85      1.0000 0.63815  0.72988  0.46830  Biso   1.000  H
  C60      1.0000 0.70995  0.61790  0.47891  Biso   1.000  C
  H86      1.0000 0.39271  0.71733  0.50011  Biso   1.000  H
  O44      1.0000 0.54374  0.69428  0.56910  Biso   1.000  O
  H87      1.0000 0.63514  0.75640  0.53570  Biso   1.000  H
  C61      1.0000 0.70895  0.64228  0.54141  Biso   1.000  C
  C62      1.0000 0.51339  0.70391  0.41902  Biso   1.000  C
  O45      1.0000 0.77066  0.64064  0.50987  Biso   1.000  O
  H88      1.0000 0.68326  0.56041  0.48151  Biso   1.000  H
  C63      1.0000 0.79343  0.62210  0.44899  Biso   1.000  C
  H89      1.0000 0.54016  0.74049  0.57870  Biso   1.000  H
  O46      1.0000 0.67050  0.56352  0.55077  Biso   1.000  O
  H90      1.0000 0.75815  0.66289  0.56080  Biso   1.000  H
  C64      1.0000 0.39079  0.69318  0.40955  Biso   1.000  C
  O47      1.0000 0.58444  0.69983  0.38812  Biso   1.000  O
  H91      1.0000 0.52289  0.75884  0.43011  Biso   1.000  H
  O48      1.0000 0.83179  0.70318  0.44414  Biso   1.000  O
  H92      1.0000 0.85756  0.58620  0.45440  Biso   1.000  H
  H93      1.0000 0.75840  0.60254  0.42679  Biso   1.000  H
  C65      1.0000 0.70786  0.53402  0.58459  Biso   1.000  C
  C66      1.0000 0.37445  0.61851  0.38668  Biso   1.000  C
  O49      1.0000 0.32558  0.68764  0.44013  Biso   1.000  O
  H94      1.0000 0.36611  0.74214  0.39581  Biso   1.000  H
  C67      1.0000 0.57451  0.62674  0.36801  Biso   1.000  C
  H95      1.0000 0.81603  0.73110  0.46210  Biso   1.000  H
  H96      1.0000 0.73739  0.58071  0.59881  Biso   1.000  H
  C68      1.0000 0.60645  0.49811  0.60321  Biso   1.000  C
  C69      1.0000 0.79927  0.47050  0.57995  Biso   1.000  C
  C70      1.0000 0.45517  0.61753  0.35549  Biso   1.000  C
  O50      1.0000 0.26345  0.61650  0.37443  Biso   1.000  O
  H97      1.0000 0.38821  0.56901  0.40151  Biso   1.000  H
  H98      1.0000 0.36519  0.69739  0.45801  Biso   1.000  H
  H99      1.0000 0.59495  0.57901  0.38321  Biso   1.000  H
  C71      1.0000 0.65541  0.63332  0.33780  Biso   1.000  C
  C72      1.0000 0.64131  0.45471  0.63679  Biso   1.000  C
  O51      1.0000 0.52715  0.55822  0.61109  Biso   1.000  O
  H100     1.0000 0.57118  0.45733  0.58700  Biso   1.000  H
  O52      1.0000 0.82729  0.43800  0.61379  Biso   1.000  O
  H101     1.0000 0.76949  0.42532  0.56491  Biso   1.000  H
  C73      1.0000 0.90293  0.50354  0.56255  Biso   1.000  C
  O53      1.0000 0.43574  0.54133  0.33804  Biso   1.000  O
  H102     1.0000 0.43658  0.66313  0.33891  Biso   1.000  H
  H103     1.0000 0.22225  0.59632  0.39021  Biso   1.000  H
  O54      1.0000 0.76916  0.61540  0.35000  Biso   1.000  O
  H104     1.0000 0.63431  0.59443  0.31881  Biso   1.000  H
  H105     1.0000 0.65266  0.68910  0.32769  Biso   1.000  H
  C74      1.0000 0.73730  0.39673  0.63003  Biso   1.000  C
  O55      1.0000 0.55075  0.41088  0.65199  Biso   1.000  O
  H106     1.0000 0.66658  0.49659  0.65430  Biso   1.000  H
  H107     1.0000 0.53365  0.59699  0.59671  Biso   1.000  H
  O56      1.0000 0.93854  0.57779  0.57841  Biso   1.000  O
  H108     1.0000 0.96347  0.46269  0.56451  Biso   1.000  H
  H109     1.0000 0.88808  0.51280  0.53700  Biso   1.000  H
  C75      1.0000 0.41298  0.53969  0.30164  Biso   1.000  C
  H110     1.0000 0.79076  0.65283  0.36361  Biso   1.000  H
  O57      1.0000 0.69936  0.33431  0.60706  Biso   1.000  O
  H111     1.0000 0.76249  0.37229  0.65300  Biso   1.000  H
  H112     1.0000 0.52339  0.37942  0.63671  Biso   1.000  H
  H113     1.0000 0.91669  0.57949  0.59960  Biso   1.000  H
  C76      1.0000 0.31032  0.48421  0.29602  Biso   1.000  C
  O58      1.0000 0.50496  0.51170  0.28228  Biso   1.000  O
  H114     1.0000 0.39421  0.59614  0.29361  Biso   1.000  H
  C77      1.0000 0.71720  0.25030  0.61727  Biso   1.000  C
  C78      1.0000 0.34326  0.39631  0.30427  Biso   1.000  C
  O59      1.0000 0.22217  0.51158  0.31788  Biso   1.000  O
  H115     1.0000 0.28630  0.48769  0.27061  Biso   1.000  H
  C79      1.0000 0.54157  0.43050  0.29212  Biso   1.000  C
  C80      1.0000 0.81286  0.21312  0.59777  Biso   1.000  C
  C81      1.0000 0.60737  0.20910  0.60711  Biso   1.000  C
  H116     1.0000 0.72938  0.24640  0.64340  Biso   1.000  H
  C82      1.0000 0.44517  0.37302  0.28406  Biso   1.000  C
  O60      1.0000 0.25035  0.34492  0.29496  Biso   1.000  O
  H117     1.0000 0.35852  0.39112  0.33029  Biso   1.000  H
  H118     1.0000 0.22325  0.56279  0.31891  Biso   1.000  H
  H119     1.0000 0.55608  0.42959  0.31820  Biso   1.000  H
  C83      1.0000 0.64915  0.41350  0.27310  Biso   1.000  C
  O61      1.0000 0.81478  0.12759  0.60393  Biso   1.000  O
  H120     1.0000 0.80469  0.22379  0.57180  Biso   1.000  H
  C84      1.0000 0.92419  0.24579  0.61056  Biso   1.000  C
  C85      1.0000 0.61521  0.11832  0.61141  Biso   1.000  C
  O62      1.0000 0.51630  0.23909  0.62777  Biso   1.000  O
  H121     1.0000 0.59186  0.22129  0.58151  Biso   1.000  H
  O63      1.0000 0.47219  0.28993  0.29411  Biso   1.000  O
  H122     1.0000 0.42849  0.37491  0.25809  Biso   1.000  H
  H123     1.0000 0.20841  0.36991  0.28080  Biso   1.000  H
  O64      1.0000 0.63289  0.40301  0.23621  Biso   1.000  O
  H124     1.0000 0.70144  0.45922  0.27711  Biso   1.000  H
  H125     1.0000 0.68335  0.36351  0.28300  Biso   1.000  H
  C86      1.0000 0.72087  0.08608  0.59268  Biso   1.000  C
  H126     1.0000 0.92102  0.30608  0.61090  Biso   1.000  H
  H127     1.0000 0.93704  0.22702  0.63520  Biso   1.000  H
  N2       1.0000 0.01676  0.22037  0.58873  Biso   1.000  N
  O65      1.0000 0.52047  0.07681  0.59782  Biso   1.000  O
  H128     1.0000 0.62147  0.10583  0.63729  Biso   1.000  H
  H129     1.0000 0.53657  0.24451  0.64899  Biso   1.000  H
  C87      1.0000 0.48970  0.23208  0.26690  Biso   1.000  C
  H130     1.0000 0.69494  0.39771  0.22621  Biso   1.000  H
  O66      1.0000 0.70411  0.09333  0.55562  Biso   1.000  O
  H131     1.0000 0.73005  0.02713  0.59859  Biso   1.000  H
  C88      1.0000 0.04670  0.26000  0.55645  Biso   1.000  C
  C89      1.0000 0.09465  0.15960  0.59560  Biso   1.000  C
  H132     1.0000 0.53557  0.02713  0.59541  Biso   1.000  H
  C90      1.0000 0.41514  0.15740  0.27520  Biso   1.000  C
  O67      1.0000 0.60003  0.21031  0.26355  Biso   1.000  O
  H133     1.0000 0.46435  0.25640  0.24390  Biso   1.000  H
  C91      1.0000 0.73205  0.02231  0.53528  Biso   1.000  C
  O68      1.0000 0.99616  0.31943  0.54525  Biso   1.000  O
  C92      1.0000 0.13694  0.21592  0.54119  Biso   1.000  C
  O69      1.0000 0.09816  0.11991  0.62233  Biso   1.000  O
  C93      1.0000 0.17029  0.15508  0.56440  Biso   1.000  C
  O70      1.0000 0.30740  0.18172  0.28358  Biso   1.000  O
  C94      1.0000 0.46368  0.10729  0.30491  Biso   1.000  C
  H134     1.0000 0.41164  0.12253  0.25350  Biso   1.000  H
  C95      1.0000 0.64940  0.17642  0.29469  Biso   1.000  C
  C96      1.0000 0.81820  0.04359  0.50660  Biso   1.000  C
  C97      1.0000 0.62780  0.99043  0.51769  Biso   1.000  C
  H135     1.0000 0.76349  0.97958  0.55130  Biso   1.000  H
  C98      1.0000 0.19673  0.22860  0.50920  Biso   1.000  C
  C99      1.0000 0.25953  0.10278  0.55631  Biso   1.000  C
  H136     1.0000 0.30840  0.22982  0.29119  Biso   1.000  H
  O71      1.0000 0.40372  0.03377  0.30674  Biso   1.000  O
  C100     1.0000 0.58928  0.09199  0.30090  Biso   1.000  C
  H137     1.0000 0.45159  0.13753  0.32761  Biso   1.000  H
  H138     1.0000 0.63339  0.21312  0.31520  Biso   1.000  H
  C101     1.0000 0.77283  0.17228  0.28920  Biso   1.000  C
  O72      1.0000 0.84196  0.97129  0.48655  Biso   1.000  O
  H139     1.0000 0.78667  0.08620  0.49050  Biso   1.000  H
  C102     1.0000 0.92920  0.07321  0.52170  Biso   1.000  C
  C103     1.0000 0.65941  0.91630  0.49541  Biso   1.000  C
  H140     1.0000 0.59595  0.03353  0.50199  Biso   1.000  H
  O73      1.0000 0.54674  0.96702  0.54294  Biso   1.000  O
  H141     1.0000 0.17638  0.27128  0.49340  Biso   1.000  H
  C104     1.0000 0.28471  0.17813  0.50141  Biso   1.000  C
  C105     1.0000 0.31832  0.11619  0.52621  Biso   1.000  C
  H142     1.0000 0.27846  0.05901  0.57170  Biso   1.000  H
  H143     1.0000 0.38137  0.02091  0.28639  Biso   1.000  H
  O74      1.0000 0.62088  0.04968  0.33207  Biso   1.000  O
  H144     1.0000 0.60229  0.05608  0.27989  Biso   1.000  H
  O75      1.0000 0.80610  0.11552  0.26239  Biso   1.000  O
  H145     1.0000 0.80027  0.22708  0.28260  Biso   1.000  H
  H146     1.0000 0.80877  0.15691  0.31180  Biso   1.000  H
  C106     1.0000 0.74864  0.93739  0.46931  Biso   1.000  C
  O76      1.0000 0.97048  0.02451  0.55074  Biso   1.000  O
  H147     1.0000 0.98532  0.07321  0.50239  Biso   1.000  H
  H148     1.0000 0.92019  0.13021  0.52989  Biso   1.000  H
  O77      1.0000 0.56718  0.88131  0.47777  Biso   1.000  O
  H149     1.0000 0.69035  0.87412  0.51180  Biso   1.000  H
  H150     1.0000 0.57702  0.96202  0.56289  Biso   1.000  H
  H151     1.0000 0.32341  0.18398  0.47960  Biso   1.000  H
  H152     1.0000 0.38254  0.08419  0.52141  Biso   1.000  H
  C107     1.0000 0.72855  0.01951  0.33401  Biso   1.000  C
  H153     1.0000 0.75573  0.11211  0.24700  Biso   1.000  H
  O78      1.0000 0.70411  0.99153  0.44321  Biso   1.000  O
  H154     1.0000 0.77275  0.88613  0.45719  Biso   1.000  H
  H155     1.0000 0.97698  0.97592  0.54419  Biso   1.000  H
  H156     1.0000 0.52489  0.85918  0.49271  Biso   1.000  H
  O79      1.0000 0.79685  0.06700  0.35727  Biso   1.000  O
  H157     1.0000 0.76215  0.02018  0.30971  Biso   1.000  H
  C108     1.0000 0.72955  0.93142  0.34809  Biso   1.000  C
  C109     1.0000 0.75540  0.98653  0.40960  Biso   1.000  C
  C110     1.0000 0.75048  0.07181  0.39334  Biso   1.000  C
  O80      1.0000 0.66266  0.87887  0.32711  Biso   1.000  O
  C111     1.0000 0.69277  0.92721  0.38660  Biso   1.000  C
  H158     1.0000 0.80819  0.91112  0.34690  Biso   1.000  H
  H159     1.0000 0.83463  0.96873  0.41231  Biso   1.000  H
  H160     1.0000 0.67084  0.08961  0.39191  Biso   1.000  H
  C112     1.0000 0.81578  0.13552  0.41180  Biso   1.000  C
  H161     1.0000 0.63506  0.90539  0.31021  Biso   1.000  H
  O81      1.0000 0.70386  0.84760  0.40021  Biso   1.000  O
  H162     1.0000 0.61196  0.94209  0.38761  Biso   1.000  H
  O82      1.0000 0.80427  0.21202  0.39711  Biso   1.000  O
  H163     1.0000 0.79184  0.13771  0.43690  Biso   1.000  H
  H164     1.0000 0.89559  0.12003  0.41141  Biso   1.000  H
  H165     1.0000 0.66250  0.81578  0.38870  Biso   1.000  H
  H166     1.0000 0.85589  0.21989  0.38239  Biso   1.000  H
  O83      1.0000 0.86707  0.59699  0.73621  Biso   1.000  O
  H167     1.0000 0.80494  0.60229  0.72621  Biso   1.000  H
  C113     1.0000 0.85080  0.58650  0.77310  Biso   1.000  C
  C114     1.0000 0.95839  0.56950  0.79212  Biso   1.000  C
  H168     1.0000 0.79843  0.54078  0.77711  Biso   1.000  H
  H169     1.0000 0.81653  0.63649  0.78300  Biso   1.000  H
  O84      1.0000 0.99500  0.48830  0.78228  Biso   1.000  O
  H170     1.0000 0.94387  0.57041  0.81820  Biso   1.000  H
  C115     1.0000 0.05487  0.62698  0.78406  Biso   1.000  C
  C116     1.0000 0.08707  0.46031  0.80164  Biso   1.000  C
  O85      1.0000 0.02777  0.71013  0.79411  Biso   1.000  O
  H171     1.0000 0.07155  0.62509  0.75809  Biso   1.000  H
  C117     1.0000 0.15662  0.60369  0.80427  Biso   1.000  C
  O86      1.0000 0.06413  0.45873  0.83804  Biso   1.000  O
  C118     1.0000 0.18973  0.51579  0.79602  Biso   1.000  C
  H172     1.0000 0.10583  0.40393  0.79361  Biso   1.000  H
  C119     1.0000 0.01034  0.76792  0.76690  Biso   1.000  C
  O87      1.0000 0.24960  0.65508  0.79496  Biso   1.000  O
  H173     1.0000 0.14152  0.60894  0.83029  Biso   1.000  H
  C120     1.0000 0.04487  0.38253  0.85549  Biso   1.000  C
  O88      1.0000 0.27779  0.48842  0.81788  Biso   1.000  O
  H174     1.0000 0.21374  0.51231  0.77061  Biso   1.000  H
  O89      1.0000 0.89984  0.78969  0.76355  Biso   1.000  O
  C121     1.0000 0.08473  0.84260  0.77520  Biso   1.000  C
  H175     1.0000 0.03561  0.74360  0.74390  Biso   1.000  H
  H176     1.0000 0.29155  0.63009  0.78080  Biso   1.000  H
  C122     1.0000 0.92544  0.37332  0.86801  Biso   1.000  C
  H177     1.0000 0.06346  0.33693  0.83891  Biso   1.000  H
  C123     1.0000 0.12543  0.38149  0.88668  Biso   1.000  C
  H178     1.0000 0.27671  0.43721  0.81891  Biso   1.000  H
  C124     1.0000 0.85055  0.82358  0.79469  Biso   1.000  C
  O90      1.0000 0.19264  0.81834  0.78358  Biso   1.000  O
  C125     1.0000 0.03636  0.89271  0.80491  Biso   1.000  C
  H179     1.0000 0.08823  0.87753  0.75350  Biso   1.000  H
  O91      1.0000 0.91544  0.30023  0.88812  Biso   1.000  O
  H180     1.0000 0.90493  0.42099  0.88321  Biso   1.000  H
  C126     1.0000 0.84455  0.36668  0.83780  Biso   1.000  C
  O92      1.0000 0.23651  0.38350  0.87443  Biso   1.000  O
  H181     1.0000 0.11175  0.43099  0.90151  Biso   1.000  H
  C127     1.0000 0.10925  0.30682  0.90955  Biso   1.000  C
  C128     1.0000 0.91068  0.90801  0.80090  Biso   1.000  C
  H182     1.0000 0.86657  0.78688  0.81520  Biso   1.000  H
  C129     1.0000 0.72705  0.82772  0.78920  Biso   1.000  C
  H183     1.0000 0.19164  0.77024  0.79119  Biso   1.000  H
  O93      1.0000 0.09632  0.96623  0.80674  Biso   1.000  O
  H184     1.0000 0.04837  0.86253  0.82761  Biso   1.000  H
  C130     1.0000 0.98657  0.29609  0.91902  Biso   1.000  C
  O94      1.0000 0.73080  0.38460  0.85000  Biso   1.000  O
  H185     1.0000 0.86565  0.40563  0.81881  Biso   1.000  H
  H186     1.0000 0.84730  0.31090  0.82769  Biso   1.000  H
  H187     1.0000 0.27762  0.40368  0.89021  Biso   1.000  H
  O95      1.0000 0.17446  0.31242  0.94013  Biso   1.000  O
  H188     1.0000 0.13393  0.25792  0.89581  Biso   1.000  H
  O96      1.0000 0.87908  0.95032  0.83207  Biso   1.000  O
  H189     1.0000 0.89767  0.94392  0.77989  Biso   1.000  H
  O97      1.0000 0.69385  0.88454  0.76239  Biso   1.000  O
  H190     1.0000 0.69969  0.77292  0.78260  Biso   1.000  H
  H191     1.0000 0.69119  0.84309  0.81180  Biso   1.000  H
  H192     1.0000 0.11859  0.97909  0.78639  Biso   1.000  H
  O98      1.0000 0.95305  0.35522  0.94387  Biso   1.000  O
  H193     1.0000 0.97707  0.24122  0.93011  Biso   1.000  H
  H194     1.0000 0.70920  0.34723  0.86361  Biso   1.000  H
  H195     1.0000 0.13485  0.30261  0.95801  Biso   1.000  H
  C131     1.0000 0.77133  0.98049  0.83401  Biso   1.000  C
  H196     1.0000 0.74414  0.88789  0.74700  Biso   1.000  H
  C132     1.0000 0.88967  0.32620  0.97374  Biso   1.000  C
  O99      1.0000 0.70311  0.93300  0.85727  Biso   1.000  O
  H197     1.0000 0.73780  0.97982  0.80971  Biso   1.000  H
  C133     1.0000 0.77033  0.06864  0.84809  Biso   1.000  C
  H198     1.0000 0.86173  0.27012  0.96830  Biso   1.000  H
  C134     1.0000 0.78993  0.38210  0.97891  Biso   1.000  C
  C135     1.0000 0.95897  0.32230  0.00621  Biso   1.000  C
  C136     1.0000 0.74948  0.92819  0.89334  Biso   1.000  C
  O100     1.0000 0.83729  0.12113  0.82711  Biso   1.000  O
  C137     1.0000 0.80719  0.07279  0.88660  Biso   1.000  C
  H199     1.0000 0.69177  0.08894  0.84690  Biso   1.000  H
  H200     1.0000 0.81670  0.43959  0.98151  Biso   1.000  H
  C138     1.0000 0.70645  0.37790  0.94899  Biso   1.000  C
  O101     1.0000 0.72930  0.35942  0.00987  Biso   1.000  O
  H201     1.0000 0.99583  0.37631  0.01000  Biso   1.000  H
  C139     1.0000 0.89225  0.30078  0.03833  Biso   1.000  C
  O102     1.0000 0.04412  0.26073  0.99997  Biso   1.000  O
  H202     1.0000 0.82904  0.91039  0.89191  Biso   1.000  H
  C140     1.0000 0.68418  0.86448  0.91180  Biso   1.000  C
  C141     1.0000 0.74456  0.01353  0.90960  Biso   1.000  C
  H203     1.0000 0.86490  0.09461  0.81021  Biso   1.000  H
  O103     1.0000 0.79610  0.15240  0.90021  Biso   1.000  O
  H204     1.0000 0.88800  0.05791  0.88761  Biso   1.000  H
  O104     1.0000 0.66817  0.29682  0.94414  Biso   1.000  O
  H205     1.0000 0.64240  0.41380  0.95440  Biso   1.000  H
  H206     1.0000 0.74156  0.39752  0.92679  Biso   1.000  H
  C142     1.0000 0.79093  0.35772  0.04141  Biso   1.000  C
  O105     1.0000 0.95613  0.30572  0.06910  Biso   1.000  O
  H207     1.0000 0.86473  0.24360  0.03570  Biso   1.000  H
  H208     1.0000 0.10725  0.28267  0.00011  Biso   1.000  H
  O106     1.0000 0.69569  0.78804  0.89711  Biso   1.000  O
  H209     1.0000 0.70803  0.86229  0.93690  Biso   1.000  H
  H210     1.0000 0.60437  0.88003  0.91141  Biso   1.000  H
  O107     1.0000 0.79585  0.00853  0.94321  Biso   1.000  O
  H211     1.0000 0.66525  0.03133  0.91231  Biso   1.000  H
  H212     1.0000 0.83746  0.18422  0.88870  Biso   1.000  H
  H213     1.0000 0.68385  0.26890  0.96210  Biso   1.000  H
  O108     1.0000 0.82946  0.43648  0.05077  Biso   1.000  O
  H214     1.0000 0.74181  0.33711  0.06080  Biso   1.000  H
  H215     1.0000 0.95972  0.25951  0.07870  Biso   1.000  H
  H216     1.0000 0.64407  0.78011  0.88239  Biso   1.000  H
  C143     1.0000 0.75123  0.06261  0.96931  Biso   1.000  C
  C144     1.0000 0.79209  0.46598  0.08459  Biso   1.000  C
  O109     1.0000 0.65799  0.02871  0.98655  Biso   1.000  O
  C145     1.0000 0.84055  0.08370  0.99541  Biso   1.000  C
  H217     1.0000 0.72713  0.11394  0.95719  Biso   1.000  H
  H218     1.0000 0.76257  0.41929  0.09881  Biso   1.000  H
  C146     1.0000 0.89350  0.50189  0.10321  Biso   1.000  C
  C147     1.0000 0.70069  0.52950  0.07995  Biso   1.000  C
  C148     1.0000 0.68176  0.95641  0.00660  Biso   1.000  C
  O110     1.0000 0.93278  0.11869  0.97777  Biso   1.000  O
  C149     1.0000 0.87215  0.00963  0.01769  Biso   1.000  C
  H219     1.0000 0.80961  0.12588  0.01180  Biso   1.000  H
  O111     1.0000 0.97273  0.44178  0.11109  Biso   1.000  O
  H220     1.0000 0.92878  0.54273  0.08700  Biso   1.000  H
  C150     1.0000 0.85864  0.54529  0.13679  Biso   1.000  C
  O112     1.0000 0.67267  0.56200  0.11379  Biso   1.000  O
  H221     1.0000 0.73046  0.57468  0.06491  Biso   1.000  H
  C151     1.0000 0.59695  0.49653  0.06255  Biso   1.000  C
  H222     1.0000 0.71328  0.91380  0.99050  Biso   1.000  H
  C152     1.0000 0.76791  0.97769  0.03528  Biso   1.000  C
  C153     1.0000 0.57076  0.92679  0.02170  Biso   1.000  C
  H223     1.0000 0.97506  0.14082  0.99271  Biso   1.000  H
  H224     1.0000 0.90393  0.96653  0.00199  Biso   1.000  H
  O113     1.0000 0.95313  0.03304  0.04294  Biso   1.000  O
  H225     1.0000 0.96622  0.40301  0.09671  Biso   1.000  H
  O114     1.0000 0.94913  0.58912  0.15199  Biso   1.000  O
  H226     1.0000 0.83338  0.50341  0.15430  Biso   1.000  H
  C154     1.0000 0.76266  0.60333  0.13003  Biso   1.000  C
  O115     1.0000 0.56134  0.42221  0.07841  Biso   1.000  O
  H227     1.0000 0.53649  0.53731  0.06451  Biso   1.000  H
  H228     1.0000 0.61188  0.48720  0.03700  Biso   1.000  H
  O116     1.0000 0.79585  0.90673  0.05562  Biso   1.000  O
  H229     1.0000 0.73647  0.02042  0.05130  Biso   1.000  H
  O117     1.0000 0.52948  0.97549  0.05074  Biso   1.000  O
  H230     1.0000 0.51455  0.92679  0.00239  Biso   1.000  H
  H231     1.0000 0.57977  0.86979  0.02989  Biso   1.000  H
  H232     1.0000 0.92294  0.03804  0.06289  Biso   1.000  H
  H233     1.0000 0.97657  0.62058  0.13671  Biso   1.000  H
  O118     1.0000 0.80060  0.66569  0.10706  Biso   1.000  O
  H234     1.0000 0.73747  0.62771  0.15300  Biso   1.000  H
  H235     1.0000 0.58327  0.42051  0.09960  Biso   1.000  H
  C155     1.0000 0.77908  0.91392  0.09268  Biso   1.000  C
  H236     1.0000 0.52298  0.02414  0.04419  Biso   1.000  H
  C156     1.0000 0.78275  0.74970  0.11727  Biso   1.000  C
  O119     1.0000 0.68518  0.87241  0.10393  Biso   1.000  O
  C157     1.0000 0.88475  0.88174  0.11141  Biso   1.000  C
  H237     1.0000 0.76983  0.97293  0.09859  Biso   1.000  H
  H238     1.0000 0.77058  0.75360  0.14340  Biso   1.000  H
  C158     1.0000 0.89259  0.79090  0.10711  Biso   1.000  C
  C159     1.0000 0.68710  0.78688  0.09777  Biso   1.000  C
  O120     1.0000 0.97948  0.92319  0.09782  Biso   1.000  O
  H239     1.0000 0.87849  0.89423  0.13729  Biso   1.000  H
  O121     1.0000 0.98365  0.76091  0.12777  Biso   1.000  O
  H240     1.0000 0.90810  0.77871  0.08151  Biso   1.000  H
  H241     1.0000 0.69527  0.77621  0.07180  Biso   1.000  H
  C160     1.0000 0.57577  0.75421  0.11056  Biso   1.000  C
  H242     1.0000 0.96439  0.97293  0.09541  Biso   1.000  H
  H243     1.0000 0.96339  0.75549  0.14899  Biso   1.000  H
  N3       1.0000 0.48328  0.77963  0.08873  Biso   1.000  N
  H244     1.0000 0.57885  0.69392  0.11090  Biso   1.000  H
  H245     1.0000 0.56284  0.77298  0.13520  Biso   1.000  H
  C161     1.0000 0.45326  0.74000  0.05645  Biso   1.000  C
  C162     1.0000 0.40539  0.84040  0.09560  Biso   1.000  C
  O122     1.0000 0.50379  0.68063  0.04525  Biso   1.000  O
  C163     1.0000 0.36302  0.78414  0.04119  Biso   1.000  C
  O123     1.0000 0.40188  0.88009  0.12233  Biso   1.000  O
  C164     1.0000 0.32966  0.84492  0.06440  Biso   1.000  C
  C165     1.0000 0.30323  0.77140  0.00920  Biso   1.000  C
  C166     1.0000 0.24043  0.89722  0.05631  Biso   1.000  C
  H246     1.0000 0.32358  0.72872  0.99340  Biso   1.000  H
  C167     1.0000 0.21533  0.82193  0.00141  Biso   1.000  C
  C168     1.0000 0.18172  0.88381  0.02621  Biso   1.000  C
  H247     1.0000 0.22158  0.94099  0.07170  Biso   1.000  H
  H248     1.0000 0.17663  0.81602  0.97960  Biso   1.000  H
  H249     1.0000 0.11750  0.91581  0.02141  Biso   1.000  H
  O124     1.0000 0.39988  0.71031  0.23645  Biso   1.000  O
  C169     1.0000 0.35060  0.67642  0.20531  Biso   1.000  C
  C170     1.0000 0.51030  0.73214  0.23310  Biso   1.000  C
  C171     1.0000 0.41064  0.59199  0.19910  Biso   1.000  C
  H250     1.0000 0.36661  0.71312  0.18480  Biso   1.000  H
  C172     1.0000 0.22709  0.67234  0.21080  Biso   1.000  C
  C173     1.0000 0.58477  0.65740  0.22480  Biso   1.000  C
  O125     1.0000 0.52781  0.78993  0.20589  Biso   1.000  O
  H251     1.0000 0.53557  0.75640  0.25610  Biso   1.000  H
  O126     1.0000 0.37912  0.54968  0.16793  Biso   1.000  O
  H252     1.0000 0.39771  0.55608  0.22011  Biso   1.000  H
  C174     1.0000 0.53632  0.60729  0.19509  Biso   1.000  C
  O127     1.0000 0.19390  0.61552  0.23761  Biso   1.000  O
  H253     1.0000 0.19973  0.72708  0.21740  Biso   1.000  H
  H254     1.0000 0.19123  0.65691  0.18820  Biso   1.000  H
  O128     1.0000 0.69260  0.68172  0.21642  Biso   1.000  O
  H255     1.0000 0.58827  0.62253  0.24650  Biso   1.000  H
  C175     1.0000 0.55475  0.87302  0.21594  Biso   1.000  C
  C176     1.0000 0.27137  0.51951  0.16599  Biso   1.000  C
  O129     1.0000 0.59628  0.53383  0.19326  Biso   1.000  O
  H256     1.0000 0.54841  0.63753  0.17239  Biso   1.000  H
  H257     1.0000 0.24418  0.61211  0.25300  Biso   1.000  H
  H258     1.0000 0.69160  0.72982  0.20881  Biso   1.000  H
  H259     1.0000 0.57151  0.87491  0.24191  Biso   1.000  H
  C177     1.0000 0.65666  0.89631  0.19573  Biso   1.000  C
  C178     1.0000 0.45834  0.93050  0.20788  Biso   1.000  C
  C179     1.0000 0.27037  0.43142  0.15191  Biso   1.000  C
  O130     1.0000 0.20307  0.56700  0.14273  Biso   1.000  O
  H260     1.0000 0.23776  0.52018  0.19029  Biso   1.000  H
  H261     1.0000 0.61855  0.52091  0.21361  Biso   1.000  H
  O131     1.0000 0.74956  0.84492  0.20504  Biso   1.000  O
  H262     1.0000 0.64148  0.89112  0.16971  Biso   1.000  H
  C180     1.0000 0.68968  0.98421  0.20398  Biso   1.000  C
  H263     1.0000 0.44392  0.92959  0.18180  Biso   1.000  H
  C181     1.0000 0.35076  0.91350  0.22690  Biso   1.000  C
  O132     1.0000 0.49495  0.01170  0.21772  Biso   1.000  O
  O133     1.0000 0.33725  0.37893  0.17289  Biso   1.000  O
  C182     1.0000 0.30715  0.42721  0.11340  Biso   1.000  C
  H264     1.0000 0.19181  0.41112  0.15310  Biso   1.000  H
  C183     1.0000 0.24952  0.57181  0.10666  Biso   1.000  C
  H265     1.0000 0.79159  0.86991  0.21920  Biso   1.000  H
  H266     1.0000 0.71370  0.98769  0.22939  Biso   1.000  H
  O134     1.0000 0.77775  0.01158  0.18212  Biso   1.000  O
  C184     1.0000 0.58694  0.03969  0.19836  Biso   1.000  C
  O135     1.0000 0.36711  0.90301  0.26379  Biso   1.000  O
  H267     1.0000 0.29847  0.95922  0.22289  Biso   1.000  H
  H268     1.0000 0.31657  0.86351  0.21700  Biso   1.000  H
  H269     1.0000 0.36486  0.40539  0.18979  Biso   1.000  H
  O136     1.0000 0.29606  0.34760  0.09979  Biso   1.000  O
  C185     1.0000 0.24460  0.48653  0.09040  Biso   1.000  C
  H270     1.0000 0.38796  0.44209  0.11239  Biso   1.000  H
  H271     1.0000 0.32908  0.58961  0.10809  Biso   1.000  H
  C186     1.0000 0.18422  0.63552  0.08820  Biso   1.000  C
  H272     1.0000 0.77667  0.06279  0.18109  Biso   1.000  H
  O137     1.0000 0.56417  0.04133  0.16196  Biso   1.000  O
  H273     1.0000 0.60579  0.09614  0.20639  Biso   1.000  H
  H274     1.0000 0.30498  0.89771  0.27379  Biso   1.000  H
  H275     1.0000 0.33750  0.31578  0.11130  Biso   1.000  H
  O138     1.0000 0.29589  0.49153  0.05679  Biso   1.000  O
  H276     1.0000 0.16529  0.46873  0.08769  Biso   1.000  H
  O139     1.0000 0.19573  0.71202  0.10289  Biso   1.000  O
  H277     1.0000 0.20807  0.63771  0.06310  Biso   1.000  H
  H278     1.0000 0.10441  0.62003  0.08859  Biso   1.000  H
  C187     1.0000 0.54474  0.11753  0.14451  Biso   1.000  C
  C188     1.0000 0.25127  0.43739  0.03069  Biso   1.000  C
  H279     1.0000 0.14411  0.71989  0.11761  Biso   1.000  H
  H280     1.0000 0.56334  0.16313  0.16109  Biso   1.000  H
  C189     1.0000 0.62547  0.11851  0.11332  Biso   1.000  C
  C190     1.0000 0.42549  0.12674  0.13199  Biso   1.000  C
  O140     1.0000 0.15795  0.47129  0.01345  Biso   1.000  O
  C191     1.0000 0.34059  0.41630  0.00459  Biso   1.000  C
  H281     1.0000 0.22717  0.38613  0.04281  Biso   1.000  H
  O141     1.0000 0.73647  0.11650  0.12557  Biso   1.000  O
  H282     1.0000 0.61179  0.06901  0.09849  Biso   1.000  H
  C192     1.0000 0.60921  0.19318  0.09045  Biso   1.000  C
  O142     1.0000 0.41548  0.19983  0.11188  Biso   1.000  O
  H283     1.0000 0.40497  0.07901  0.11679  Biso   1.000  H
  C193     1.0000 0.34459  0.13332  0.16220  Biso   1.000  C
  C194     1.0000 0.18180  0.54359  0.99340  Biso   1.000  C
  O143     1.0000 0.43274  0.38131  0.02223  Biso   1.000  O
  C195     1.0000 0.37220  0.49043  0.98231  Biso   1.000  C
  H284     1.0000 0.30957  0.37412  0.98820  Biso   1.000  H
  H285     1.0000 0.77767  0.09632  0.10979  Biso   1.000  H
  O144     1.0000 0.67434  0.18764  0.05987  Biso   1.000  O
  H286     1.0000 0.63389  0.24214  0.10419  Biso   1.000  H
  C196     1.0000 0.48661  0.20391  0.08098  Biso   1.000  C
  O145     1.0000 0.23076  0.11540  0.15000  Biso   1.000  O
  H287     1.0000 0.36569  0.09443  0.18119  Biso   1.000  H
  H288     1.0000 0.34726  0.18910  0.17231  Biso   1.000  H
  H289     1.0000 0.21333  0.58620  0.00950  Biso   1.000  H
  C197     1.0000 0.26787  0.52231  0.96472  Biso   1.000  C
  C198     1.0000 0.07080  0.57321  0.97830  Biso   1.000  C
  H290     1.0000 0.47511  0.35918  0.00729  Biso   1.000  H
  O146     1.0000 0.45317  0.46702  0.95706  Biso   1.000  O
  H291     1.0000 0.40397  0.53353  0.99801  Biso   1.000  H
  H292     1.0000 0.63481  0.19739  0.04199  Biso   1.000  H
  O147     1.0000 0.45309  0.14484  0.05613  Biso   1.000  O
  H293     1.0000 0.47711  0.25884  0.06989  Biso   1.000  H
  H294     1.0000 0.20916  0.15283  0.13639  Biso   1.000  H
  O148     1.0000 0.29589  0.59333  0.94438  Biso   1.000  O
  H295     1.0000 0.23651  0.47958  0.94870  Biso   1.000  H
  O149     1.0000 0.02952  0.52451  0.94926  Biso   1.000  O
  H296     1.0000 0.01459  0.57321  0.99761  Biso   1.000  H
  H297     1.0000 0.07981  0.63021  0.97011  Biso   1.000  H
  H298     1.0000 0.42298  0.46202  0.93711  Biso   1.000  H
  C199     1.0000 0.38971  0.17380  0.02626  Biso   1.000  C
  C200     1.0000 0.27913  0.58614  0.90732  Biso   1.000  C
  H299     1.0000 0.02302  0.47592  0.95581  Biso   1.000  H
  C201     1.0000 0.45901  0.17770  0.99379  Biso   1.000  C
  H300     1.0000 0.36177  0.22994  0.03170  Biso   1.000  H
  C202     1.0000 0.28997  0.11790  0.02109  Biso   1.000  C
  O150     1.0000 0.18522  0.62759  0.89607  Biso   1.000  O
  C203     1.0000 0.38479  0.61832  0.88859  Biso   1.000  C
  H301     1.0000 0.26987  0.52713  0.90141  Biso   1.000  H
  C204     1.0000 0.39229  0.19922  0.96167  Biso   1.000  C
  H302     1.0000 0.49587  0.12369  0.99000  Biso   1.000  H
  O151     1.0000 0.54407  0.23933  0.00003  Biso   1.000  O
  O152     1.0000 0.22926  0.14064  0.99013  Biso   1.000  O
  H303     1.0000 0.31665  0.06041  0.01849  Biso   1.000  H
  C205     1.0000 0.20649  0.12210  0.05101  Biso   1.000  C
  C206     1.0000 0.18706  0.71312  0.90223  Biso   1.000  C
  O153     1.0000 0.47944  0.57681  0.90218  Biso   1.000  O
  C207     1.0000 0.39254  0.70910  0.89289  Biso   1.000  C
  H304     1.0000 0.37845  0.60583  0.86271  Biso   1.000  H
  C208     1.0000 0.29097  0.14234  0.95859  Biso   1.000  C
  O154     1.0000 0.45618  0.19434  0.93090  Biso   1.000  O
  H305     1.0000 0.36477  0.25640  0.96430  Biso   1.000  H
  H306     1.0000 0.60729  0.21733  0.99989  Biso   1.000  H
  O155     1.0000 0.16821  0.20324  0.05586  Biso   1.000  O
  H307     1.0000 0.14236  0.08620  0.04560  Biso   1.000  H
  H308     1.0000 0.24160  0.10254  0.07321  Biso   1.000  H
  C209     1.0000 0.28280  0.75030  0.88273  Biso   1.000  C
  H309     1.0000 0.19531  0.72379  0.92820  Biso   1.000  H
  C210     1.0000 0.07581  0.74579  0.88944  Biso   1.000  C
  H310     1.0000 0.46435  0.52713  0.90459  Biso   1.000  H
  O156     1.0000 0.48370  0.73909  0.87223  Biso   1.000  O
  H311     1.0000 0.40806  0.72129  0.91849  Biso   1.000  H
  O157     1.0000 0.32950  0.06352  0.94923  Biso   1.000  O
  H312     1.0000 0.24176  0.16289  0.93920  Biso   1.000  H
  H313     1.0000 0.45976  0.24049  0.92130  Biso   1.000  H
  H314     1.0000 0.18389  0.23110  0.03790  Biso   1.000  H
  O158     1.0000 0.30056  0.83431  0.89294  Biso   1.000  O
  H315     1.0000 0.27062  0.74640  0.85660  Biso   1.000  H
  N4       1.0000 0.98332  0.72043  0.91127  Biso   1.000  N
  H316     1.0000 0.07889  0.80608  0.88910  Biso   1.000  H
  H317     1.0000 0.06288  0.72702  0.86480  Biso   1.000  H
  H318     1.0000 0.46335  0.74451  0.85101  Biso   1.000  H
  C211     1.0000 0.29205  0.03402  0.91541  Biso   1.000  C
  C212     1.0000 0.26270  0.89673  0.86997  Biso   1.000  C
  C213     1.0000 0.95330  0.76000  0.94355  Biso   1.000  C
  C214     1.0000 0.90543  0.65960  0.90440  Biso   1.000  C
  C215     1.0000 0.20065  0.97050  0.92005  Biso   1.000  C
  C216     1.0000 0.39346  0.99811  0.89679  Biso   1.000  C
  H319     1.0000 0.26261  0.08071  0.90119  Biso   1.000  H
  O159     1.0000 0.17271  0.93800  0.88621  Biso   1.000  O
  C217     1.0000 0.35869  0.95471  0.86321  Biso   1.000  C
  H320     1.0000 0.23751  0.87229  0.84700  Biso   1.000  H
  C218     1.0000 0.86298  0.71592  0.95881  Biso   1.000  C
  O160     1.0000 0.00384  0.81943  0.95475  Biso   1.000  O
  O161     1.0000 0.90193  0.61991  0.87767  Biso   1.000  O
  C219     1.0000 0.82971  0.65508  0.93560  Biso   1.000  C
  H321     1.0000 0.23051  0.92532  0.93509  Biso   1.000  H
  C220     1.0000 0.09699  0.00354  0.93745  Biso   1.000  C
  H322     1.0000 0.42882  0.95733  0.91300  Biso   1.000  H
  O162     1.0000 0.47277  0.05822  0.88891  Biso   1.000  O
  O163     1.0000 0.44917  0.91094  0.84801  Biso   1.000  O
  H323     1.0000 0.33342  0.99659  0.84570  Biso   1.000  H
  C221     1.0000 0.80319  0.72860  0.99080  Biso   1.000  C
  C222     1.0000 0.74039  0.60278  0.94369  Biso   1.000  C
  H324     1.0000 0.03653  0.96269  0.93549  Biso   1.000  H
  O164     1.0000 0.06138  0.07779  0.92159  Biso   1.000  O
  H325     1.0000 0.11192  0.01280  0.96300  Biso   1.000  H
  H326     1.0000 0.46627  0.09699  0.90329  Biso   1.000  H
  H327     1.0000 0.47661  0.87942  0.86329  Biso   1.000  H
  C223     1.0000 0.71529  0.67813  0.99859  Biso   1.000  C
  H328     1.0000 0.82362  0.77134  0.00660  Biso   1.000  H
  C224     1.0000 0.68168  0.61619  0.97379  Biso   1.000  C
  H329     1.0000 0.72162  0.55901  0.92830  Biso   1.000  H
  H330     1.0000 0.08331  0.07949  0.90040  Biso   1.000  H
  H331     1.0000 0.67659  0.68398  0.02040  Biso   1.000  H
  H332     1.0000 0.61755  0.58419  0.97859  Biso   1.000  H
