data_image0
_cell_length_a       21.536
_cell_length_b       15.147
_cell_length_c       27.037
_cell_angle_alpha    90
_cell_angle_beta     109.51
_cell_angle_gamma    90

_symmetry_space_group_name_H-M    "P 1"
_symmetry_int_tables_number       1

loop_
  _symmetry_equiv_pos_as_xyz
  'x, y, z'

loop_
  _atom_site_label
  _atom_site_occupancy
  _atom_site_fract_x
  _atom_site_fract_y
  _atom_site_fract_z
  _atom_site_thermal_displace_type
  _atom_site_B_iso_or_equiv
  _atom_site_type_symbol
  C1       1.0000 0.19864  0.61458  0.51019  Biso   1.000  C
  C2       1.0000 0.14221  0.62058  0.46079  Biso   1.000  C
  C3       1.0000 0.14981  0.59781  0.46240  Biso   1.000  C
  C4       1.0000 0.25453  0.62521  0.51902  Biso   1.000  C
  C5       1.0000 0.26373  0.62441  0.51251  Biso   1.000  C
  H1       1.0000 0.18753  0.61933  0.54119  Biso   1.000  H
  C6       1.0000 0.16223  0.57629  0.42359  Biso   1.000  C
  C7       1.0000 0.16612  0.59081  0.41692  Biso   1.000  C
  C8       1.0000 0.18832  0.64508  0.50850  Biso   1.000  C
  H2       1.0000 0.09690  0.63418  0.45349  Biso   1.000  H
  H3       1.0000 0.10530  0.59107  0.46079  Biso   1.000  H
  C9       1.0000 0.27463  0.58097  0.48190  Biso   1.000  C
  C10      1.0000 0.28003  0.61742  0.46699  Biso   1.000  C
  C11      1.0000 0.31104  0.65412  0.56654  Biso   1.000  C
  N1       1.0000 0.11452  0.56909  0.36850  Biso   1.000  N
  C12      1.0000 0.22845  0.55648  0.43422  Biso   1.000  C
  C13      1.0000 0.23120  0.60071  0.41931  Biso   1.000  C
  H4       1.0000 0.17474  0.67532  0.53381  Biso   1.000  H
  H5       1.0000 0.31982  0.56737  0.48912  Biso   1.000  H
  H6       1.0000 0.32454  0.62408  0.46860  Biso   1.000  H
  C14      1.0000 0.29339  0.67102  0.61060  Biso   1.000  C
  C15      1.0000 0.37476  0.67188  0.56744  Biso   1.000  C
  O1       1.0000 0.14212  0.53997  0.33930  Biso   1.000  O
  O2       1.0000 0.05580  0.57477  0.36210  Biso   1.000  O
  O3       1.0000 0.06123  0.56282  0.37850  Biso   1.000  O
  O4       1.0000 0.13241  0.56288  0.32910  Biso   1.000  O
  H7       1.0000 0.24212  0.52618  0.40880  Biso   1.000  H
  H8       1.0000 0.24230  0.59589  0.38819  Biso   1.000  H
  C16      1.0000 0.33941  0.70562  0.65557  Biso   1.000  C
  H9       1.0000 0.24982  0.65888  0.60990  Biso   1.000  H
  C17      1.0000 0.42079  0.70641  0.61245  Biso   1.000  C
  H10      1.0000 0.38682  0.66033  0.53730  Biso   1.000  H
  C18      1.0000 0.32022  0.72542  0.70172  Biso   1.000  C
  C19      1.0000 0.40314  0.72331  0.65651  Biso   1.000  C
  C20      1.0000 0.48792  0.72780  0.61331  Biso   1.000  C
  N2       1.0000 0.26435  0.70753  0.70380  Biso   1.000  N
  H11      1.0000 0.35154  0.75282  0.73123  Biso   1.000  H
  H12      1.0000 0.43463  0.74701  0.68732  Biso   1.000  H
  N3       1.0000 0.50590  0.70998  0.57490  Biso   1.000  N
  H13      1.0000 0.51805  0.75540  0.64341  Biso   1.000  H
  C21      1.0000 0.24666  0.73057  0.74822  Biso   1.000  C
  C22      1.0000 0.57151  0.73473  0.57490  Biso   1.000  C
  C23      1.0000 0.29620  0.78220  0.79405  Biso   1.000  C
  H14      1.0000 0.23555  0.67532  0.76281  Biso   1.000  H
  H15      1.0000 0.20573  0.76603  0.73542  Biso   1.000  H
  C24      1.0000 0.61697  0.78412  0.62230  Biso   1.000  C
  H16      1.0000 0.56592  0.77157  0.54350  Biso   1.000  H
  H17      1.0000 0.59433  0.68000  0.57062  Biso   1.000  H
  C25      1.0000 0.29569  0.87390  0.79338  Biso   1.000  C
  C26      1.0000 0.33987  0.73724  0.83619  Biso   1.000  C
  C27      1.0000 0.61744  0.87588  0.62296  Biso   1.000  C
  C28      1.0000 0.66019  0.73724  0.66381  Biso   1.000  C
  C29      1.0000 0.33896  0.92078  0.83490  Biso   1.000  C
  C30      1.0000 0.24804  0.92183  0.74629  Biso   1.000  C
  C31      1.0000 0.38309  0.78412  0.87771  Biso   1.000  C
  C32      1.0000 0.34216  0.63689  0.83533  Biso   1.000  C
  C33      1.0000 0.66111  0.92078  0.66511  Biso   1.000  C
  C34      1.0000 0.56862  0.92678  0.57741  Biso   1.000  C
  C35      1.0000 0.70388  0.78220  0.70599  Biso   1.000  C
  C36      1.0000 0.65793  0.63689  0.66471  Biso   1.000  C
  C37      1.0000 0.38265  0.87588  0.87708  Biso   1.000  C
  C38      1.0000 0.33603  0.02132  0.83599  Biso   1.000  C
  H18      1.0000 0.24042  0.88519  0.71451  Biso   1.000  H
  H19      1.0000 0.26802  0.97821  0.74092  Biso   1.000  H
  C39      1.0000 0.18195  0.94052  0.75391  Biso   1.000  C
  C40      1.0000 0.42855  0.73473  0.92511  Biso   1.000  C
  H20      1.0000 0.38794  0.61722  0.85361  Biso   1.000  H
  H21      1.0000 0.32932  0.61669  0.79840  Biso   1.000  H
  C41      1.0000 0.29654  0.59358  0.86130  Biso   1.000  C
  C42      1.0000 0.70438  0.87390  0.70662  Biso   1.000  C
  C43      1.0000 0.66404  0.02132  0.66401  Biso   1.000  C
  H22      1.0000 0.55683  0.98290  0.59083  Biso   1.000  H
  H23      1.0000 0.52791  0.89160  0.56261  Biso   1.000  H
  C44      1.0000 0.59780  0.94712  0.53350  Biso   1.000  C
  C45      1.0000 0.75342  0.73057  0.75183  Biso   1.000  C
  H24      1.0000 0.61212  0.61722  0.64639  Biso   1.000  H
  H25      1.0000 0.67074  0.61669  0.70160  Biso   1.000  H
  C46      1.0000 0.70353  0.59358  0.63870  Biso   1.000  C
  C47      1.0000 0.43145  0.92678  0.92260  Biso   1.000  C
  N4       1.0000 0.37832  0.07209  0.81371  Biso   1.000  N
  H26      1.0000 0.28993  0.03908  0.81732  Biso   1.000  H
  H27      1.0000 0.34662  0.03961  0.87300  Biso   1.000  H
  H28      1.0000 0.18943  0.97557  0.78592  Biso   1.000  H
  H29      1.0000 0.16081  0.88460  0.75720  Biso   1.000  H
  H30      1.0000 0.15341  0.97339  0.72361  Biso   1.000  H
  N5       1.0000 0.49412  0.70998  0.92511  Biso   1.000  N
  H31      1.0000 0.43415  0.77157  0.95650  Biso   1.000  H
  H32      1.0000 0.40575  0.68000  0.92942  Biso   1.000  H
  H33      1.0000 0.30773  0.61517  0.89740  Biso   1.000  H
  H34      1.0000 0.30223  0.52941  0.86170  Biso   1.000  H
  H35      1.0000 0.25076  0.60850  0.84161  Biso   1.000  H
  C48      1.0000 0.75203  0.92183  0.75371  Biso   1.000  C
  N6       1.0000 0.62175  0.07209  0.68630  Biso   1.000  N
  H36      1.0000 0.71015  0.03908  0.68273  Biso   1.000  H
  H37      1.0000 0.65345  0.03961  0.62701  Biso   1.000  H
  H38      1.0000 0.56672  0.98343  0.50642  Biso   1.000  H
  H39      1.0000 0.60585  0.89173  0.51792  Biso   1.000  H
  H40      1.0000 0.63953  0.97907  0.54841  Biso   1.000  H
  H41      1.0000 0.76451  0.67532  0.73719  Biso   1.000  H
  H42      1.0000 0.79435  0.76603  0.76462  Biso   1.000  H
  N7       1.0000 0.73573  0.70753  0.79624  Biso   1.000  N
  H43      1.0000 0.69234  0.61517  0.60260  Biso   1.000  H
  H44      1.0000 0.69784  0.52941  0.63831  Biso   1.000  H
  H45      1.0000 0.74931  0.60850  0.65840  Biso   1.000  H
  H46      1.0000 0.44325  0.98290  0.90921  Biso   1.000  H
  H47      1.0000 0.47217  0.89160  0.93743  Biso   1.000  H
  C49      1.0000 0.40226  0.94712  0.96650  Biso   1.000  C
  C50      1.0000 0.41521  0.03347  0.79240  Biso   1.000  C
  C51      1.0000 0.51214  0.72780  0.88669  Biso   1.000  C
  H48      1.0000 0.75964  0.88519  0.78549  Biso   1.000  H
  H49      1.0000 0.73206  0.97821  0.75912  Biso   1.000  H
  C52      1.0000 0.81812  0.94052  0.74610  Biso   1.000  C
  C53      1.0000 0.58485  0.03347  0.70760  Biso   1.000  C
  C54      1.0000 0.67986  0.72542  0.79832  Biso   1.000  C
  H50      1.0000 0.43337  0.98343  0.99362  Biso   1.000  H
  H51      1.0000 0.39423  0.89173  0.98212  Biso   1.000  H
  H52      1.0000 0.36054  0.97907  0.95159  Biso   1.000  H
  H53      1.0000 0.41472  0.97082  0.79079  Biso   1.000  H
  C55      1.0000 0.45833  0.08160  0.77031  Biso   1.000  C
  H54      1.0000 0.48202  0.75540  0.85659  Biso   1.000  H
  C56      1.0000 0.57927  0.70641  0.88755  Biso   1.000  C
  H55      1.0000 0.81065  0.97557  0.71412  Biso   1.000  H
  H56      1.0000 0.83921  0.88460  0.74280  Biso   1.000  H
  H57      1.0000 0.84662  0.97339  0.77643  Biso   1.000  H
  H58      1.0000 0.58534  0.97082  0.70921  Biso   1.000  H
  C57      1.0000 0.54174  0.08160  0.72969  Biso   1.000  C
  H59      1.0000 0.64855  0.75282  0.76882  Biso   1.000  H
  C58      1.0000 0.66065  0.70562  0.84443  Biso   1.000  C
  C59      1.0000 0.50002  0.03869  0.75002  Biso   1.000  C
  C60      1.0000 0.45851  0.17489  0.77031  Biso   1.000  C
  C61      1.0000 0.59692  0.72331  0.84349  Biso   1.000  C
  C62      1.0000 0.62531  0.67188  0.93256  Biso   1.000  C
  C63      1.0000 0.54155  0.17489  0.72969  Biso   1.000  C
  C64      1.0000 0.70669  0.67102  0.88944  Biso   1.000  C
  H60      1.0000 0.50002  0.97590  0.75002  Biso   1.000  H
  C65      1.0000 0.50002  0.22130  0.75002  Biso   1.000  C
  H61      1.0000 0.43003  0.20611  0.78432  Biso   1.000  H
  H62      1.0000 0.56545  0.74701  0.81273  Biso   1.000  H
  C66      1.0000 0.68904  0.65412  0.93350  Biso   1.000  C
  H63      1.0000 0.61324  0.66033  0.96270  Biso   1.000  H
  H64      1.0000 0.57006  0.20611  0.71573  Biso   1.000  H
  H65      1.0000 0.75025  0.65888  0.89011  Biso   1.000  H
  C67      1.0000 0.50002  0.32422  0.75002  Biso   1.000  C
  C68      1.0000 0.74555  0.62521  0.98102  Biso   1.000  C
  C69      1.0000 0.73633  0.62441  0.98750  Biso   1.000  C
  C70      1.0000 0.50654  0.36582  0.70831  Biso   1.000  C
  C71      1.0000 0.49353  0.36582  0.79169  Biso   1.000  C
  C72      1.0000 0.81175  0.64508  0.99150  Biso   1.000  C
  C73      1.0000 0.80143  0.61458  0.98981  Biso   1.000  C
  C74      1.0000 0.72539  0.58097  0.01810  Biso   1.000  C
  C75      1.0000 0.71999  0.61742  0.03302  Biso   1.000  C
  H66      1.0000 0.51035  0.33373  0.67919  Biso   1.000  H
  C76      1.0000 0.50752  0.45811  0.70890  Biso   1.000  C
  H67      1.0000 0.48972  0.33373  0.82081  Biso   1.000  H
  C77      1.0000 0.49254  0.45811  0.79110  Biso   1.000  C
  H68      1.0000 0.82535  0.67532  0.96623  Biso   1.000  H
  H69      1.0000 0.81253  0.61933  0.95881  Biso   1.000  H
  C78      1.0000 0.85780  0.62058  0.03921  Biso   1.000  C
  C79      1.0000 0.85016  0.59781  0.03761  Biso   1.000  C
  C80      1.0000 0.77159  0.55648  0.06582  Biso   1.000  C
  H70      1.0000 0.68022  0.56737  0.01092  Biso   1.000  H
  C81      1.0000 0.76878  0.60071  0.08073  Biso   1.000  C
  H71      1.0000 0.67548  0.62408  0.03141  Biso   1.000  H
  H72      1.0000 0.51346  0.48967  0.68053  Biso   1.000  H
  C82      1.0000 0.50002  0.50228  0.75002  Biso   1.000  C
  H73      1.0000 0.48662  0.48967  0.81951  Biso   1.000  H
  H74      1.0000 0.90312  0.63418  0.04651  Biso   1.000  H
  C83      1.0000 0.83779  0.57629  0.07641  Biso   1.000  C
  H75      1.0000 0.89467  0.59107  0.03921  Biso   1.000  H
  C84      1.0000 0.83391  0.59081  0.08312  Biso   1.000  C
  H76      1.0000 0.75790  0.52618  0.09121  Biso   1.000  H
  H77      1.0000 0.75767  0.59589  0.11181  Biso   1.000  H
  N8       1.0000 0.50002  0.59847  0.75002  Biso   1.000  N
  N9       1.0000 0.88550  0.56909  0.13151  Biso   1.000  N
  O5       1.0000 0.53255  0.63557  0.72628  Biso   1.000  O
  O6       1.0000 0.46753  0.63557  0.77376  Biso   1.000  O
  O7       1.0000 0.94422  0.57477  0.13790  Biso   1.000  O
  O8       1.0000 0.85790  0.53997  0.16070  Biso   1.000  O
  O9       1.0000 0.93879  0.56282  0.12150  Biso   1.000  O
  O10      1.0000 0.86761  0.56288  0.17090  Biso   1.000  O
  C85      1.0000 0.09780  0.44709  0.53350  Biso   1.000  C
  C86      1.0000 0.06862  0.42682  0.57741  Biso   1.000  C
  H78      1.0000 0.06672  0.48340  0.50642  Biso   1.000  H
  H79      1.0000 0.10585  0.39169  0.51792  Biso   1.000  H
  H80      1.0000 0.13953  0.47910  0.54841  Biso   1.000  H
  C87      1.0000 0.11744  0.37592  0.62296  Biso   1.000  C
  H81      1.0000 0.05683  0.48287  0.59083  Biso   1.000  H
  H82      1.0000 0.02791  0.39163  0.56261  Biso   1.000  H
  C88      1.0000 0.16111  0.42081  0.66511  Biso   1.000  C
  C89      1.0000 0.11697  0.28408  0.62230  Biso   1.000  C
  C90      1.0000 0.20438  0.37387  0.70662  Biso   1.000  C
  C91      1.0000 0.16404  0.52129  0.66401  Biso   1.000  C
  C92      1.0000 0.16019  0.23727  0.66381  Biso   1.000  C
  C93      1.0000 0.07151  0.23470  0.57490  Biso   1.000  C
  C94      1.0000 0.20388  0.28217  0.70599  Biso   1.000  C
  C95      1.0000 0.25203  0.42180  0.75371  Biso   1.000  C
  N10      1.0000 0.12175  0.57213  0.68630  Biso   1.000  N
  H83      1.0000 0.21015  0.53912  0.68273  Biso   1.000  H
  H84      1.0000 0.15345  0.53958  0.62701  Biso   1.000  H
  C96      1.0000 0.15793  0.13692  0.66471  Biso   1.000  C
  N11      1.0000 0.00590  0.21001  0.57490  Biso   1.000  N
  H85      1.0000 0.06592  0.27160  0.54350  Biso   1.000  H
  H86      1.0000 0.09433  0.17997  0.57062  Biso   1.000  H
  C97      1.0000 0.25342  0.23061  0.75183  Biso   1.000  C
  H87      1.0000 0.25964  0.38522  0.78549  Biso   1.000  H
  H88      1.0000 0.23206  0.47818  0.75912  Biso   1.000  H
  C98      1.0000 0.31812  0.44048  0.74610  Biso   1.000  C
  C99      1.0000 0.08485  0.53350  0.70760  Biso   1.000  C
  H89      1.0000 0.11212  0.11718  0.64639  Biso   1.000  H
  H90      1.0000 0.17074  0.11672  0.70160  Biso   1.000  H
  C100     1.0000 0.20353  0.09362  0.63870  Biso   1.000  C
  C101     1.0000 0.98792  0.22777  0.61331  Biso   1.000  C
  H91      1.0000 0.26451  0.17528  0.73719  Biso   1.000  H
  H92      1.0000 0.29435  0.26599  0.76462  Biso   1.000  H
  N12      1.0000 0.23573  0.20750  0.79624  Biso   1.000  N
  H93      1.0000 0.31065  0.47561  0.71412  Biso   1.000  H
  H94      1.0000 0.33921  0.38463  0.74280  Biso   1.000  H
  H95      1.0000 0.34662  0.47343  0.77643  Biso   1.000  H
  H96      1.0000 0.08534  0.47079  0.70921  Biso   1.000  H
  C102     1.0000 0.04174  0.58157  0.72969  Biso   1.000  C
  H97      1.0000 0.19234  0.11520  0.60260  Biso   1.000  H
  H98      1.0000 0.19784  0.02938  0.63831  Biso   1.000  H
  H99      1.0000 0.24931  0.10847  0.65840  Biso   1.000  H
  H100     1.0000 0.01805  0.25543  0.64341  Biso   1.000  H
  C103     1.0000 0.92079  0.20638  0.61245  Biso   1.000  C
  C104     1.0000 0.17986  0.22539  0.79832  Biso   1.000  C
  C105     1.0000 0.04155  0.67492  0.72969  Biso   1.000  C
  C106     1.0000 0.00002  0.53872  0.75002  Biso   1.000  C
  C107     1.0000 0.90314  0.22328  0.65651  Biso   1.000  C
  C108     1.0000 0.87476  0.17192  0.56744  Biso   1.000  C
  H101     1.0000 0.14855  0.25279  0.76882  Biso   1.000  H
  C109     1.0000 0.16065  0.20559  0.84443  Biso   1.000  C
  H102     1.0000 0.07006  0.70608  0.71573  Biso   1.000  H
  C110     1.0000 0.00002  0.72133  0.75002  Biso   1.000  C
  H103     1.0000 0.00002  0.47587  0.75002  Biso   1.000  H
  C111     1.0000 0.95833  0.58157  0.77031  Biso   1.000  C
  H104     1.0000 0.93463  0.24698  0.68732  Biso   1.000  H
  C112     1.0000 0.83941  0.20559  0.65557  Biso   1.000  C
  C113     1.0000 0.81104  0.15409  0.56654  Biso   1.000  C
  H105     1.0000 0.88682  0.16030  0.53730  Biso   1.000  H
  C114     1.0000 0.09692  0.22328  0.84349  Biso   1.000  C
  C115     1.0000 0.20669  0.17099  0.88944  Biso   1.000  C
  C116     1.0000 0.00002  0.82419  0.75002  Biso   1.000  C
  C117     1.0000 0.95851  0.67492  0.77031  Biso   1.000  C
  C118     1.0000 0.91521  0.53350  0.79240  Biso   1.000  C
  C119     1.0000 0.82022  0.22539  0.70172  Biso   1.000  C
  C120     1.0000 0.79339  0.17099  0.61060  Biso   1.000  C
  C121     1.0000 0.75453  0.12517  0.51902  Biso   1.000  C
  C122     1.0000 0.76373  0.12438  0.51251  Biso   1.000  C
  C123     1.0000 0.07927  0.20638  0.88755  Biso   1.000  C
  H106     1.0000 0.06545  0.24698  0.81273  Biso   1.000  H
  H107     1.0000 0.25025  0.15891  0.89011  Biso   1.000  H
  C124     1.0000 0.18904  0.15409  0.93350  Biso   1.000  C
  C125     1.0000 0.00654  0.86578  0.70831  Biso   1.000  C
  C126     1.0000 0.99353  0.86578  0.79169  Biso   1.000  C
  H108     1.0000 0.93003  0.70608  0.78432  Biso   1.000  H
  N13      1.0000 0.87832  0.57213  0.81371  Biso   1.000  N
  H109     1.0000 0.91472  0.47079  0.79079  Biso   1.000  H
  N14      1.0000 0.76435  0.20750  0.70380  Biso   1.000  N
  H110     1.0000 0.85154  0.25279  0.73123  Biso   1.000  H
  H111     1.0000 0.74982  0.15891  0.60990  Biso   1.000  H
  C127     1.0000 0.68832  0.14511  0.50850  Biso   1.000  C
  C128     1.0000 0.77463  0.08101  0.48190  Biso   1.000  C
  C129     1.0000 0.69864  0.11461  0.51019  Biso   1.000  C
  C130     1.0000 0.78003  0.11738  0.46699  Biso   1.000  C
  C131     1.0000 0.01214  0.22777  0.88669  Biso   1.000  C
  C132     1.0000 0.12531  0.17192  0.93256  Biso   1.000  C
  C133     1.0000 0.24555  0.12517  0.98102  Biso   1.000  C
  C134     1.0000 0.23633  0.12438  0.98750  Biso   1.000  C
  H112     1.0000 0.01035  0.83370  0.67919  Biso   1.000  H
  C135     1.0000 0.00752  0.95808  0.70890  Biso   1.000  C
  H113     1.0000 0.98972  0.83370  0.82081  Biso   1.000  H
  C136     1.0000 0.99254  0.95808  0.79110  Biso   1.000  C
  C137     1.0000 0.83603  0.52129  0.83599  Biso   1.000  C
  C138     1.0000 0.74666  0.23061  0.74822  Biso   1.000  C
  H114     1.0000 0.67474  0.17528  0.53381  Biso   1.000  H
  C139     1.0000 0.64221  0.12062  0.46079  Biso   1.000  C
  H115     1.0000 0.68753  0.11930  0.54119  Biso   1.000  H
  C140     1.0000 0.64981  0.09778  0.46240  Biso   1.000  C
  C141     1.0000 0.72845  0.05651  0.43422  Biso   1.000  C
  H116     1.0000 0.81982  0.06741  0.48912  Biso   1.000  H
  C142     1.0000 0.73120  0.10068  0.41931  Biso   1.000  C
  H117     1.0000 0.82454  0.12412  0.46860  Biso   1.000  H
  N15      1.0000 0.99412  0.21001  0.92511  Biso   1.000  N
  H118     1.0000 0.98202  0.25543  0.85659  Biso   1.000  H
  H119     1.0000 0.11324  0.16030  0.96270  Biso   1.000  H
  C143     1.0000 0.31175  0.14511  0.99150  Biso   1.000  C
  C144     1.0000 0.30143  0.11461  0.98981  Biso   1.000  C
  C145     1.0000 0.22539  0.08101  0.01810  Biso   1.000  C
  C146     1.0000 0.21999  0.11738  0.03302  Biso   1.000  C
  H120     1.0000 0.01346  0.98970  0.68053  Biso   1.000  H
  C147     1.0000 0.00002  0.00231  0.75002  Biso   1.000  C
  H121     1.0000 0.98662  0.98970  0.81951  Biso   1.000  H
  C148     1.0000 0.83896  0.42081  0.83490  Biso   1.000  C
  H122     1.0000 0.78993  0.53912  0.81732  Biso   1.000  H
  H123     1.0000 0.84662  0.53958  0.87300  Biso   1.000  H
  C149     1.0000 0.79620  0.28217  0.79405  Biso   1.000  C
  H124     1.0000 0.73555  0.17528  0.76281  Biso   1.000  H
  H125     1.0000 0.70573  0.26599  0.73542  Biso   1.000  H
  H126     1.0000 0.59690  0.13422  0.45349  Biso   1.000  H
  C150     1.0000 0.66223  0.07632  0.42359  Biso   1.000  C
  H127     1.0000 0.60530  0.09111  0.46079  Biso   1.000  H
  C151     1.0000 0.66612  0.09078  0.41692  Biso   1.000  C
  H128     1.0000 0.74212  0.02621  0.40880  Biso   1.000  H
  H129     1.0000 0.74230  0.09593  0.38819  Biso   1.000  H
  C152     1.0000 0.92855  0.23470  0.92511  Biso   1.000  C
  H130     1.0000 0.32535  0.17528  0.96623  Biso   1.000  H
  H131     1.0000 0.31253  0.11930  0.95881  Biso   1.000  H
  C153     1.0000 0.35780  0.12062  0.03921  Biso   1.000  C
  C154     1.0000 0.35016  0.09778  0.03761  Biso   1.000  C
  C155     1.0000 0.27159  0.05651  0.06582  Biso   1.000  C
  H132     1.0000 0.18022  0.06741  0.01092  Biso   1.000  H
  C156     1.0000 0.26878  0.10068  0.08073  Biso   1.000  C
  H133     1.0000 0.17548  0.12412  0.03141  Biso   1.000  H
  N16      1.0000 0.00002  0.09850  0.75002  Biso   1.000  N
  C157     1.0000 0.88265  0.37592  0.87708  Biso   1.000  C
  C158     1.0000 0.79569  0.37387  0.79338  Biso   1.000  C
  C159     1.0000 0.83987  0.23727  0.83619  Biso   1.000  C
  N17      1.0000 0.61452  0.06912  0.36850  Biso   1.000  N
  C160     1.0000 0.88309  0.28408  0.87771  Biso   1.000  C
  H134     1.0000 0.93415  0.27160  0.95650  Biso   1.000  H
  H135     1.0000 0.90575  0.17997  0.92942  Biso   1.000  H
  H136     1.0000 0.40312  0.13422  0.04651  Biso   1.000  H
  C161     1.0000 0.33779  0.07632  0.07641  Biso   1.000  C
  H137     1.0000 0.39467  0.09111  0.03921  Biso   1.000  H
  C162     1.0000 0.33391  0.09078  0.08312  Biso   1.000  C
  H138     1.0000 0.25790  0.02621  0.09121  Biso   1.000  H
  H139     1.0000 0.25767  0.09593  0.11181  Biso   1.000  H
  O11      1.0000 0.96753  0.13560  0.77376  Biso   1.000  O
  O12      1.0000 0.03255  0.13560  0.72628  Biso   1.000  O
  C163     1.0000 0.93145  0.42682  0.92260  Biso   1.000  C
  C164     1.0000 0.74804  0.42180  0.74629  Biso   1.000  C
  C165     1.0000 0.84216  0.13692  0.83533  Biso   1.000  C
  O13      1.0000 0.55580  0.07480  0.36210  Biso   1.000  O
  O14      1.0000 0.64212  0.04001  0.33930  Biso   1.000  O
  O15      1.0000 0.56123  0.06278  0.37850  Biso   1.000  O
  O16      1.0000 0.63241  0.06292  0.32910  Biso   1.000  O
  N18      1.0000 0.38550  0.06912  0.13151  Biso   1.000  N
  H140     1.0000 0.94325  0.48287  0.90921  Biso   1.000  H
  H141     1.0000 0.97217  0.39163  0.93743  Biso   1.000  H
  C166     1.0000 0.90226  0.44709  0.96650  Biso   1.000  C
  H142     1.0000 0.74042  0.38522  0.71451  Biso   1.000  H
  H143     1.0000 0.76802  0.47818  0.74092  Biso   1.000  H
  C167     1.0000 0.68195  0.44048  0.75391  Biso   1.000  C
  H144     1.0000 0.88794  0.11718  0.85361  Biso   1.000  H
  H145     1.0000 0.82932  0.11672  0.79840  Biso   1.000  H
  C168     1.0000 0.79654  0.09362  0.86130  Biso   1.000  C
  O17      1.0000 0.44422  0.07480  0.13790  Biso   1.000  O
  O18      1.0000 0.35790  0.04001  0.16070  Biso   1.000  O
  O19      1.0000 0.43879  0.06278  0.12150  Biso   1.000  O
  O20      1.0000 0.36761  0.06292  0.17090  Biso   1.000  O
  H146     1.0000 0.93337  0.48340  0.99362  Biso   1.000  H
  H147     1.0000 0.89423  0.39169  0.98212  Biso   1.000  H
  H148     1.0000 0.86054  0.47910  0.95159  Biso   1.000  H
  H149     1.0000 0.68943  0.47561  0.78592  Biso   1.000  H
  H150     1.0000 0.66081  0.38463  0.75720  Biso   1.000  H
  H151     1.0000 0.65341  0.47343  0.72361  Biso   1.000  H
  H152     1.0000 0.80773  0.11520  0.89740  Biso   1.000  H
  H153     1.0000 0.80223  0.02938  0.86170  Biso   1.000  H
  H154     1.0000 0.75076  0.10847  0.84161  Biso   1.000  H
  C169     1.0000 0.29651  0.40642  0.36132  Biso   1.000  C
  C170     1.0000 0.34211  0.36311  0.33530  Biso   1.000  C
  H155     1.0000 0.30774  0.38483  0.39742  Biso   1.000  H
  H156     1.0000 0.30224  0.47059  0.36171  Biso   1.000  H
  H157     1.0000 0.25073  0.39150  0.34162  Biso   1.000  H
  C171     1.0000 0.33984  0.26276  0.33620  Biso   1.000  C
  H158     1.0000 0.38790  0.38278  0.35359  Biso   1.000  H
  H159     1.0000 0.32934  0.38331  0.29842  Biso   1.000  H
  C172     1.0000 0.29615  0.21780  0.29402  Biso   1.000  C
  C173     1.0000 0.38311  0.21588  0.37772  Biso   1.000  C
  C174     1.0000 0.24661  0.26943  0.24819  Biso   1.000  C
  C175     1.0000 0.29570  0.12610  0.29339  Biso   1.000  C
  C176     1.0000 0.38264  0.12412  0.37705  Biso   1.000  C
  C177     1.0000 0.42852  0.26527  0.42512  Biso   1.000  C
  H160     1.0000 0.23551  0.32468  0.26279  Biso   1.000  H
  H161     1.0000 0.20573  0.23397  0.23540  Biso   1.000  H
  N19      1.0000 0.26430  0.29247  0.20377  Biso   1.000  N
  C178     1.0000 0.33892  0.07922  0.33491  Biso   1.000  C
  C179     1.0000 0.24800  0.07817  0.24631  Biso   1.000  C
  C180     1.0000 0.43142  0.07322  0.42261  Biso   1.000  C
  N20      1.0000 0.49413  0.29002  0.42512  Biso   1.000  N
  H162     1.0000 0.43412  0.22843  0.45651  Biso   1.000  H
  H163     1.0000 0.40571  0.32000  0.42940  Biso   1.000  H
  C181     1.0000 0.32022  0.27458  0.20169  Biso   1.000  C
  C182     1.0000 0.33600  0.97868  0.33601  Biso   1.000  C
  H164     1.0000 0.24044  0.11481  0.21452  Biso   1.000  H
  H165     1.0000 0.26802  0.02179  0.24089  Biso   1.000  H
  C183     1.0000 0.18192  0.05948  0.25392  Biso   1.000  C
  H166     1.0000 0.44320  0.01710  0.40919  Biso   1.000  H
  H167     1.0000 0.47212  0.10840  0.43740  Biso   1.000  H
  C184     1.0000 0.40223  0.05288  0.46652  Biso   1.000  C
  C185     1.0000 0.51211  0.27220  0.38670  Biso   1.000  C
  H168     1.0000 0.35149  0.24718  0.23120  Biso   1.000  H
  C186     1.0000 0.33938  0.29438  0.15558  Biso   1.000  C
  N21      1.0000 0.37833  0.92791  0.31372  Biso   1.000  N
  H169     1.0000 0.28989  0.96092  0.31729  Biso   1.000  H
  H170     1.0000 0.34663  0.96039  0.37301  Biso   1.000  H
  H171     1.0000 0.18943  0.02443  0.28590  Biso   1.000  H
  H172     1.0000 0.16083  0.11540  0.25721  Biso   1.000  H
  H173     1.0000 0.15341  0.02661  0.22359  Biso   1.000  H
  H174     1.0000 0.43332  0.01657  0.49359  Biso   1.000  H
  H175     1.0000 0.39423  0.10827  0.48209  Biso   1.000  H
  H176     1.0000 0.36050  0.02093  0.45161  Biso   1.000  H
  H177     1.0000 0.48203  0.24460  0.35661  Biso   1.000  H
  C187     1.0000 0.57924  0.29359  0.38757  Biso   1.000  C
  C188     1.0000 0.40311  0.27669  0.15653  Biso   1.000  C
  C189     1.0000 0.29334  0.32898  0.11058  Biso   1.000  C
  C190     1.0000 0.41523  0.96653  0.29241  Biso   1.000  C
  C191     1.0000 0.59694  0.27669  0.34350  Biso   1.000  C
  C192     1.0000 0.62532  0.32812  0.43257  Biso   1.000  C
  C193     1.0000 0.42076  0.29359  0.11246  Biso   1.000  C
  H178     1.0000 0.43458  0.25299  0.18729  Biso   1.000  H
  H179     1.0000 0.24979  0.34112  0.10991  Biso   1.000  H
  C194     1.0000 0.31099  0.34588  0.06651  Biso   1.000  C
  H180     1.0000 0.41469  0.02918  0.29080  Biso   1.000  H
  C195     1.0000 0.45830  0.91840  0.27032  Biso   1.000  C
  H181     1.0000 0.56540  0.25299  0.31270  Biso   1.000  H
  C196     1.0000 0.66062  0.29438  0.34444  Biso   1.000  C
  C197     1.0000 0.68899  0.34588  0.43348  Biso   1.000  C
  H182     1.0000 0.61321  0.33967  0.46271  Biso   1.000  H
  C198     1.0000 0.48788  0.27220  0.11328  Biso   1.000  C
  C199     1.0000 0.37472  0.32812  0.06745  Biso   1.000  C
  C200     1.0000 0.25448  0.37479  0.01899  Biso   1.000  C
  C201     1.0000 0.26368  0.37559  0.01248  Biso   1.000  C
  C202     1.0000 0.50002  0.96131  0.24999  Biso   1.000  C
  C203     1.0000 0.45853  0.82511  0.27032  Biso   1.000  C
  C204     1.0000 0.67982  0.27458  0.29830  Biso   1.000  C
  C205     1.0000 0.70669  0.32898  0.38941  Biso   1.000  C
  C206     1.0000 0.74550  0.37479  0.48100  Biso   1.000  C
  C207     1.0000 0.73630  0.37559  0.48751  Biso   1.000  C
  N22      1.0000 0.50592  0.29002  0.07491  Biso   1.000  N
  H183     1.0000 0.51802  0.24460  0.14342  Biso   1.000  H
  H184     1.0000 0.38679  0.33967  0.03732  Biso   1.000  H
  C208     1.0000 0.18828  0.35492  0.00851  Biso   1.000  C
  C209     1.0000 0.19860  0.38542  0.01020  Biso   1.000  C
  C210     1.0000 0.27464  0.41903  0.98191  Biso   1.000  C
  C211     1.0000 0.28004  0.38258  0.96700  Biso   1.000  C
  H185     1.0000 0.50002  0.02410  0.24999  Biso   1.000  H
  C212     1.0000 0.54171  0.91840  0.22971  Biso   1.000  C
  C213     1.0000 0.50002  0.77870  0.24999  Biso   1.000  C
  H186     1.0000 0.43002  0.79389  0.28429  Biso   1.000  H
  N23      1.0000 0.73573  0.29247  0.29622  Biso   1.000  N
  H187     1.0000 0.64850  0.24718  0.26879  Biso   1.000  H
  H188     1.0000 0.75021  0.34112  0.39012  Biso   1.000  H
  C214     1.0000 0.81172  0.35492  0.49151  Biso   1.000  C
  C215     1.0000 0.72541  0.41903  0.51812  Biso   1.000  C
  C216     1.0000 0.80144  0.38542  0.48982  Biso   1.000  C
  C217     1.0000 0.72003  0.38258  0.53299  Biso   1.000  C
  C218     1.0000 0.57153  0.26527  0.07491  Biso   1.000  C
  H189     1.0000 0.17469  0.32468  0.03379  Biso   1.000  H
  H190     1.0000 0.18750  0.38067  0.04120  Biso   1.000  H
  C219     1.0000 0.14223  0.37942  0.96080  Biso   1.000  C
  C220     1.0000 0.14987  0.40219  0.96241  Biso   1.000  C
  C221     1.0000 0.22845  0.44352  0.93420  Biso   1.000  C
  H191     1.0000 0.31986  0.43263  0.98909  Biso   1.000  H
  C222     1.0000 0.23125  0.39929  0.91928  Biso   1.000  C
  H192     1.0000 0.32455  0.37592  0.96861  Biso   1.000  H
  C223     1.0000 0.58482  0.96653  0.20762  Biso   1.000  C
  C224     1.0000 0.54152  0.82511  0.22971  Biso   1.000  C
  C225     1.0000 0.50002  0.67578  0.24999  Biso   1.000  C
  C226     1.0000 0.75342  0.26943  0.25180  Biso   1.000  C
  H193     1.0000 0.82530  0.32468  0.46620  Biso   1.000  H
  C227     1.0000 0.85780  0.37942  0.53919  Biso   1.000  C
  H194     1.0000 0.81253  0.38067  0.45879  Biso   1.000  H
  C228     1.0000 0.85023  0.40219  0.53762  Biso   1.000  C
  C229     1.0000 0.77163  0.44352  0.56579  Biso   1.000  C
  H195     1.0000 0.68022  0.43263  0.51090  Biso   1.000  H
  C230     1.0000 0.76883  0.39929  0.58070  Biso   1.000  C
  H196     1.0000 0.67554  0.37592  0.53142  Biso   1.000  H
  C231     1.0000 0.61694  0.21588  0.12231  Biso   1.000  C
  H197     1.0000 0.56589  0.22843  0.04352  Biso   1.000  H
  H198     1.0000 0.59428  0.32000  0.07059  Biso   1.000  H
  H199     1.0000 0.09696  0.36582  0.95350  Biso   1.000  H
  C232     1.0000 0.16225  0.42371  0.92360  Biso   1.000  C
  H200     1.0000 0.10536  0.40893  0.96080  Biso   1.000  H
  C233     1.0000 0.16617  0.40919  0.91689  Biso   1.000  C
  H201     1.0000 0.24213  0.47382  0.90881  Biso   1.000  H
  H202     1.0000 0.24236  0.40411  0.88821  Biso   1.000  H
  H203     1.0000 0.58529  0.02918  0.20918  Biso   1.000  H
  N24      1.0000 0.62172  0.92791  0.18631  Biso   1.000  N
  H204     1.0000 0.57001  0.79389  0.21570  Biso   1.000  H
  C234     1.0000 0.49350  0.63418  0.29171  Biso   1.000  C
  C235     1.0000 0.50650  0.63418  0.20832  Biso   1.000  C
  C236     1.0000 0.70388  0.21780  0.20597  Biso   1.000  C
  H205     1.0000 0.76453  0.32468  0.23720  Biso   1.000  H
  H206     1.0000 0.79430  0.23397  0.26459  Biso   1.000  H
  H207     1.0000 0.90313  0.36582  0.54653  Biso   1.000  H
  C237     1.0000 0.83785  0.42371  0.57643  Biso   1.000  C
  H208     1.0000 0.89472  0.40893  0.53919  Biso   1.000  H
  C238     1.0000 0.83391  0.40919  0.58310  Biso   1.000  C
  H209     1.0000 0.75792  0.47382  0.59122  Biso   1.000  H
  H210     1.0000 0.75773  0.40411  0.61182  Biso   1.000  H
  C239     1.0000 0.61739  0.12412  0.12294  Biso   1.000  C
  C240     1.0000 0.66016  0.26276  0.16382  Biso   1.000  C
  N25      1.0000 0.11454  0.43091  0.86851  Biso   1.000  N
  C241     1.0000 0.66401  0.97868  0.16402  Biso   1.000  C
  H211     1.0000 0.48973  0.66627  0.32082  Biso   1.000  H
  C242     1.0000 0.49251  0.54189  0.29112  Biso   1.000  C
  H212     1.0000 0.51032  0.66627  0.17921  Biso   1.000  H
  C243     1.0000 0.50749  0.54189  0.20891  Biso   1.000  C
  C244     1.0000 0.70435  0.12610  0.20663  Biso   1.000  C
  N26      1.0000 0.88556  0.43091  0.63152  Biso   1.000  N
  C245     1.0000 0.66112  0.07922  0.16512  Biso   1.000  C
  C246     1.0000 0.56863  0.07322  0.07742  Biso   1.000  C
  C247     1.0000 0.65792  0.36311  0.16469  Biso   1.000  C
  O21      1.0000 0.05586  0.42523  0.86211  Biso   1.000  O
  O22      1.0000 0.14214  0.46003  0.83931  Biso   1.000  O
  O23      1.0000 0.06125  0.43718  0.87851  Biso   1.000  O
  O24      1.0000 0.13247  0.43712  0.82911  Biso   1.000  O
  H213     1.0000 0.71010  0.96092  0.18270  Biso   1.000  H
  H214     1.0000 0.65341  0.96039  0.12702  Biso   1.000  H
  H215     1.0000 0.48662  0.51033  0.31949  Biso   1.000  H
  C248     1.0000 0.50002  0.49772  0.24999  Biso   1.000  C
  H216     1.0000 0.51341  0.51033  0.18050  Biso   1.000  H
  C249     1.0000 0.75200  0.07817  0.25372  Biso   1.000  C
  O25      1.0000 0.94424  0.42523  0.63791  Biso   1.000  O
  O26      1.0000 0.85791  0.46003  0.66071  Biso   1.000  O
  O27      1.0000 0.93885  0.43718  0.62151  Biso   1.000  O
  O28      1.0000 0.86762  0.43712  0.67091  Biso   1.000  O
  H217     1.0000 0.55678  0.01710  0.09080  Biso   1.000  H
  H218     1.0000 0.52791  0.10840  0.06259  Biso   1.000  H
  C250     1.0000 0.59782  0.05288  0.03351  Biso   1.000  C
  H219     1.0000 0.61209  0.38278  0.14640  Biso   1.000  H
  H220     1.0000 0.67071  0.38331  0.20161  Biso   1.000  H
  C251     1.0000 0.70350  0.40642  0.13871  Biso   1.000  C
  N27      1.0000 0.50002  0.40153  0.24999  Biso   1.000  N
  H221     1.0000 0.75961  0.11481  0.28551  Biso   1.000  H
  H222     1.0000 0.73201  0.02179  0.25910  Biso   1.000  H
  C252     1.0000 0.81813  0.05948  0.24611  Biso   1.000  C
  H223     1.0000 0.56671  0.01657  0.00640  Biso   1.000  H
  H224     1.0000 0.60580  0.10827  0.01789  Biso   1.000  H
  H225     1.0000 0.63948  0.02093  0.04838  Biso   1.000  H
  H226     1.0000 0.69231  0.38483  0.10261  Biso   1.000  H
  H227     1.0000 0.69781  0.47059  0.13832  Biso   1.000  H
  H228     1.0000 0.74932  0.39150  0.15841  Biso   1.000  H
  O29      1.0000 0.46753  0.36443  0.27373  Biso   1.000  O
  O30      1.0000 0.53250  0.36443  0.22625  Biso   1.000  O
  H229     1.0000 0.81060  0.02443  0.21409  Biso   1.000  H
  H230     1.0000 0.83922  0.11540  0.24281  Biso   1.000  H
  H231     1.0000 0.84662  0.02661  0.27640  Biso   1.000  H
  C253     1.0000 0.12532  0.82808  0.43257  Biso   1.000  C
  C254     1.0000 0.07924  0.79362  0.38757  Biso   1.000  C
  C255     1.0000 0.18899  0.84591  0.43348  Biso   1.000  C
  H232     1.0000 0.11321  0.83970  0.46271  Biso   1.000  H
  C256     1.0000 0.09694  0.77672  0.34350  Biso   1.000  C
  C257     1.0000 0.01211  0.77223  0.38670  Biso   1.000  C
  C258     1.0000 0.20669  0.82901  0.38941  Biso   1.000  C
  C259     1.0000 0.24550  0.87483  0.48100  Biso   1.000  C
  C260     1.0000 0.23630  0.87562  0.48751  Biso   1.000  C
  C261     1.0000 0.16062  0.79441  0.34444  Biso   1.000  C
  H233     1.0000 0.06540  0.75302  0.31270  Biso   1.000  H
  N28      1.0000 0.99413  0.78999  0.42512  Biso   1.000  N
  H234     1.0000 0.98203  0.74457  0.35661  Biso   1.000  H
  H235     1.0000 0.25021  0.84109  0.39012  Biso   1.000  H
  C262     1.0000 0.31172  0.85489  0.49151  Biso   1.000  C
  C263     1.0000 0.22541  0.91899  0.51812  Biso   1.000  C
  C264     1.0000 0.30144  0.88539  0.48982  Biso   1.000  C
  C265     1.0000 0.22003  0.88262  0.53299  Biso   1.000  C
  C266     1.0000 0.17982  0.77461  0.29830  Biso   1.000  C
  C267     1.0000 0.92852  0.76530  0.42512  Biso   1.000  C
  H236     1.0000 0.32530  0.82472  0.46620  Biso   1.000  H
  C268     1.0000 0.35780  0.87938  0.53919  Biso   1.000  C
  H237     1.0000 0.31253  0.88070  0.45879  Biso   1.000  H
  C269     1.0000 0.35023  0.90222  0.53762  Biso   1.000  C
  C270     1.0000 0.27163  0.94349  0.56579  Biso   1.000  C
  H238     1.0000 0.18022  0.93259  0.51090  Biso   1.000  H
  C271     1.0000 0.26883  0.89932  0.58070  Biso   1.000  C
  H239     1.0000 0.17554  0.87588  0.53142  Biso   1.000  H
  N29      1.0000 0.23573  0.79250  0.29622  Biso   1.000  N
  H240     1.0000 0.14850  0.74721  0.26879  Biso   1.000  H
  C272     1.0000 0.88311  0.71592  0.37772  Biso   1.000  C
  H241     1.0000 0.93412  0.72840  0.45651  Biso   1.000  H
  H242     1.0000 0.90571  0.82003  0.42940  Biso   1.000  H
  H243     1.0000 0.40313  0.86578  0.54653  Biso   1.000  H
  C273     1.0000 0.33785  0.92368  0.57643  Biso   1.000  C
  H244     1.0000 0.39472  0.90889  0.53919  Biso   1.000  H
  C274     1.0000 0.33391  0.90922  0.58310  Biso   1.000  C
  H245     1.0000 0.25792  0.97379  0.59122  Biso   1.000  H
  H246     1.0000 0.25773  0.90407  0.61182  Biso   1.000  H
  C275     1.0000 0.25342  0.76939  0.25180  Biso   1.000  C
  C276     1.0000 0.88264  0.62408  0.37705  Biso   1.000  C
  C277     1.0000 0.83984  0.76273  0.33620  Biso   1.000  C
  N30      1.0000 0.38556  0.93088  0.63152  Biso   1.000  N
  C278     1.0000 0.20388  0.71783  0.20597  Biso   1.000  C
  H247     1.0000 0.26453  0.82472  0.23720  Biso   1.000  H
  H248     1.0000 0.29430  0.73401  0.26459  Biso   1.000  H
  C279     1.0000 0.83892  0.57919  0.33491  Biso   1.000  C
  C280     1.0000 0.93142  0.57318  0.42261  Biso   1.000  C
  C281     1.0000 0.79615  0.71783  0.29402  Biso   1.000  C
  C282     1.0000 0.84211  0.86308  0.33530  Biso   1.000  C
  O31      1.0000 0.44424  0.92520  0.63791  Biso   1.000  O
  O32      1.0000 0.35791  0.95999  0.66071  Biso   1.000  O
  O33      1.0000 0.43885  0.93722  0.62151  Biso   1.000  O
  O34      1.0000 0.36762  0.93708  0.67091  Biso   1.000  O
  C283     1.0000 0.20435  0.62613  0.20663  Biso   1.000  C
  C284     1.0000 0.16016  0.76273  0.16382  Biso   1.000  C
  C285     1.0000 0.83600  0.47871  0.33601  Biso   1.000  C
  C286     1.0000 0.79570  0.62613  0.29339  Biso   1.000  C
  H249     1.0000 0.94320  0.51713  0.40919  Biso   1.000  H
  H250     1.0000 0.97212  0.60837  0.43740  Biso   1.000  H
  C287     1.0000 0.90223  0.55291  0.46652  Biso   1.000  C
  C288     1.0000 0.74661  0.76939  0.24819  Biso   1.000  C
  H251     1.0000 0.88790  0.88282  0.35359  Biso   1.000  H
  H252     1.0000 0.82934  0.88328  0.29842  Biso   1.000  H
  C289     1.0000 0.79651  0.90638  0.36132  Biso   1.000  C
  C290     1.0000 0.16112  0.57919  0.16512  Biso   1.000  C
  C291     1.0000 0.25200  0.57820  0.25372  Biso   1.000  C
  C292     1.0000 0.11694  0.71592  0.12231  Biso   1.000  C
  C293     1.0000 0.15792  0.86308  0.16469  Biso   1.000  C
  N31      1.0000 0.87833  0.42787  0.31372  Biso   1.000  N
  H253     1.0000 0.78989  0.46088  0.31729  Biso   1.000  H
  H254     1.0000 0.84663  0.46042  0.37301  Biso   1.000  H
  C294     1.0000 0.74800  0.57820  0.24631  Biso   1.000  C
  H255     1.0000 0.93332  0.51660  0.49359  Biso   1.000  H
  H256     1.0000 0.89423  0.60831  0.48209  Biso   1.000  H
  H257     1.0000 0.86050  0.52090  0.45161  Biso   1.000  H
  N32      1.0000 0.76430  0.79250  0.20377  Biso   1.000  N
  H258     1.0000 0.73551  0.82472  0.26279  Biso   1.000  H
  H259     1.0000 0.70573  0.73401  0.23540  Biso   1.000  H
  H260     1.0000 0.80774  0.88480  0.39742  Biso   1.000  H
  H261     1.0000 0.80224  0.97062  0.36171  Biso   1.000  H
  H262     1.0000 0.75073  0.89153  0.34162  Biso   1.000  H
  C295     1.0000 0.16401  0.47871  0.16402  Biso   1.000  C
  C296     1.0000 0.11739  0.62408  0.12294  Biso   1.000  C
  H263     1.0000 0.25961  0.61478  0.28551  Biso   1.000  H
  H264     1.0000 0.23201  0.52182  0.25910  Biso   1.000  H
  C297     1.0000 0.31813  0.55952  0.24611  Biso   1.000  C
  C298     1.0000 0.07153  0.76530  0.07491  Biso   1.000  C
  H265     1.0000 0.11209  0.88282  0.14640  Biso   1.000  H
  H266     1.0000 0.17071  0.88328  0.20161  Biso   1.000  H
  C299     1.0000 0.20350  0.90638  0.13871  Biso   1.000  C
  C300     1.0000 0.91523  0.46650  0.29241  Biso   1.000  C
  H267     1.0000 0.74044  0.61478  0.21452  Biso   1.000  H
  H268     1.0000 0.76802  0.52182  0.24089  Biso   1.000  H
  C301     1.0000 0.68192  0.55952  0.25392  Biso   1.000  C
  C302     1.0000 0.82022  0.77461  0.20169  Biso   1.000  C
  N33      1.0000 0.12172  0.42787  0.18631  Biso   1.000  N
  H269     1.0000 0.21010  0.46088  0.18270  Biso   1.000  H
  H270     1.0000 0.15341  0.46042  0.12702  Biso   1.000  H
  C303     1.0000 0.06863  0.57318  0.07742  Biso   1.000  C
  H271     1.0000 0.31060  0.52439  0.21409  Biso   1.000  H
  H272     1.0000 0.33922  0.61537  0.24281  Biso   1.000  H
  H273     1.0000 0.34662  0.52657  0.27640  Biso   1.000  H
  N34      1.0000 0.00592  0.78999  0.07491  Biso   1.000  N
  H274     1.0000 0.06589  0.72840  0.04352  Biso   1.000  H
  H275     1.0000 0.09428  0.82003  0.07059  Biso   1.000  H
  H276     1.0000 0.19231  0.88480  0.10261  Biso   1.000  H
  H277     1.0000 0.19781  0.97062  0.13832  Biso   1.000  H
  H278     1.0000 0.24932  0.89153  0.15841  Biso   1.000  H
  C304     1.0000 0.95830  0.41843  0.27032  Biso   1.000  C
  H279     1.0000 0.91469  0.52921  0.29080  Biso   1.000  H
  H280     1.0000 0.68943  0.52439  0.28590  Biso   1.000  H
  H281     1.0000 0.66083  0.61537  0.25721  Biso   1.000  H
  H282     1.0000 0.65341  0.52657  0.22359  Biso   1.000  H
  C305     1.0000 0.83938  0.79441  0.15558  Biso   1.000  C
  H283     1.0000 0.85149  0.74721  0.23120  Biso   1.000  H
  C306     1.0000 0.08482  0.46650  0.20762  Biso   1.000  C
  H284     1.0000 0.05678  0.51713  0.09080  Biso   1.000  H
  H285     1.0000 0.02791  0.60837  0.06259  Biso   1.000  H
  C307     1.0000 0.09782  0.55291  0.03351  Biso   1.000  C
  C308     1.0000 0.98788  0.77223  0.11328  Biso   1.000  C
  C309     1.0000 0.00002  0.46128  0.24999  Biso   1.000  C
  C310     1.0000 0.95853  0.32508  0.27032  Biso   1.000  C
  C311     1.0000 0.90311  0.77672  0.15653  Biso   1.000  C
  C312     1.0000 0.79334  0.82901  0.11058  Biso   1.000  C
  H286     1.0000 0.08529  0.52921  0.20918  Biso   1.000  H
  C313     1.0000 0.04171  0.41843  0.22971  Biso   1.000  C
  H287     1.0000 0.06671  0.51660  0.00640  Biso   1.000  H
  H288     1.0000 0.10580  0.60831  0.01789  Biso   1.000  H
  H289     1.0000 0.13948  0.52090  0.04838  Biso   1.000  H
  H290     1.0000 0.01802  0.74457  0.14342  Biso   1.000  H
  C314     1.0000 0.92076  0.79362  0.11246  Biso   1.000  C
  H291     1.0000 0.00002  0.52413  0.24999  Biso   1.000  H
  C315     1.0000 0.00002  0.27867  0.24999  Biso   1.000  C
  H292     1.0000 0.93002  0.29392  0.28429  Biso   1.000  H
  H293     1.0000 0.93458  0.75302  0.18729  Biso   1.000  H
  C316     1.0000 0.81099  0.84591  0.06651  Biso   1.000  C
  H294     1.0000 0.74979  0.84109  0.10991  Biso   1.000  H
  C317     1.0000 0.04152  0.32508  0.22971  Biso   1.000  C
  C318     1.0000 0.87472  0.82808  0.06745  Biso   1.000  C
  C319     1.0000 0.00002  0.17581  0.24999  Biso   1.000  C
  C320     1.0000 0.75448  0.87483  0.01899  Biso   1.000  C
  C321     1.0000 0.76368  0.87562  0.01248  Biso   1.000  C
  H295     1.0000 0.07001  0.29392  0.21570  Biso   1.000  H
  H296     1.0000 0.88679  0.83970  0.03732  Biso   1.000  H
  C322     1.0000 0.00650  0.13422  0.20832  Biso   1.000  C
  C323     1.0000 0.99350  0.13422  0.29171  Biso   1.000  C
  C324     1.0000 0.77464  0.91899  0.98191  Biso   1.000  C
  C325     1.0000 0.78004  0.88262  0.96700  Biso   1.000  C
  C326     1.0000 0.68828  0.85489  0.00851  Biso   1.000  C
  C327     1.0000 0.69860  0.88539  0.01020  Biso   1.000  C
  H297     1.0000 0.01032  0.16630  0.17921  Biso   1.000  H
  C328     1.0000 0.00749  0.04192  0.20891  Biso   1.000  C
  H298     1.0000 0.98973  0.16630  0.32082  Biso   1.000  H
  C329     1.0000 0.99251  0.04192  0.29112  Biso   1.000  C
  C330     1.0000 0.72845  0.94349  0.93420  Biso   1.000  C
  H299     1.0000 0.81986  0.93259  0.98909  Biso   1.000  H
  C331     1.0000 0.73125  0.89932  0.91928  Biso   1.000  C
  H300     1.0000 0.82455  0.87588  0.96861  Biso   1.000  H
  C332     1.0000 0.64223  0.87938  0.96080  Biso   1.000  C
  C333     1.0000 0.64987  0.90222  0.96241  Biso   1.000  C
  H301     1.0000 0.67469  0.82472  0.03379  Biso   1.000  H
  H302     1.0000 0.68750  0.88070  0.04120  Biso   1.000  H
  H303     1.0000 0.01341  0.01030  0.18050  Biso   1.000  H
  C334     1.0000 0.00002  0.99769  0.24999  Biso   1.000  C
  H304     1.0000 0.98662  0.01030  0.31949  Biso   1.000  H
  C335     1.0000 0.66225  0.92368  0.92360  Biso   1.000  C
  H305     1.0000 0.74213  0.97379  0.90881  Biso   1.000  H
  C336     1.0000 0.66617  0.90922  0.91689  Biso   1.000  C
  H306     1.0000 0.74236  0.90407  0.88821  Biso   1.000  H
  H307     1.0000 0.59696  0.86578  0.95350  Biso   1.000  H
  H308     1.0000 0.60536  0.90889  0.96080  Biso   1.000  H
  N35      1.0000 0.00002  0.90150  0.24999  Biso   1.000  N
  N36      1.0000 0.61454  0.93088  0.86851  Biso   1.000  N
  O35      1.0000 0.96753  0.86440  0.27373  Biso   1.000  O
  O36      1.0000 0.03250  0.86440  0.22625  Biso   1.000  O
  O37      1.0000 0.55586  0.92520  0.86211  Biso   1.000  O
  O38      1.0000 0.64214  0.95999  0.83931  Biso   1.000  O
  O39      1.0000 0.56125  0.93722  0.87851  Biso   1.000  O
  O40      1.0000 0.63247  0.93708  0.82911  Biso   1.000  O
  Ne1      1.0000 0.50002  0.19131  0.25001  Biso   1.000  Ne
  He1      1.0000 0.47593  0.15316  0.28622  Biso   1.000  He
  He2      1.0000 0.45769  0.21245  0.27128  Biso   1.000  He
  He3      1.0000 0.44410  0.15698  0.25649  Biso   1.000  He
  Ar1      1.0000 0.49873  0.16961  0.25069  Biso   1.000  Ar
  Ne2      1.0000 0.00002  0.69131  0.25001  Biso   1.000  Ne
  He4      1.0000 0.97592  0.65317  0.28622  Biso   1.000  He
  He5      1.0000 0.95769  0.71248  0.27127  Biso   1.000  He
  He6      1.0000 0.94411  0.65701  0.25649  Biso   1.000  He
  Ar2      1.0000 0.99874  0.66964  0.25070  Biso   1.000  Ar
  Ne3      1.0000 0.50003  0.80869  0.75001  Biso   1.000  Ne
  He7      1.0000 0.47362  0.84423  0.78378  Biso   1.000  He
  He8      1.0000 0.54232  0.78898  0.72876  Biso   1.000  He
  He9      1.0000 0.52389  0.84707  0.71356  Biso   1.000  He
  Ar3      1.0000 0.50131  0.83039  0.74933  Biso   1.000  Ar
  Ne4      1.0000 0.00003  0.30869  0.75001  Biso   1.000  Ne
  He10     1.0000 0.97360  0.34422  0.78378  Biso   1.000  He
  He11     1.0000 0.04233  0.28894  0.72876  Biso   1.000  He
  He12     1.0000 0.02390  0.34706  0.71357  Biso   1.000  He
  Ar4      1.0000 0.00131  0.33035  0.74932  Biso   1.000  Ar
