data_image0
_cell_length_a       30.624
_cell_length_b       30.624
_cell_length_c       20.967
_cell_angle_alpha    90
_cell_angle_beta     90
_cell_angle_gamma    120

_symmetry_space_group_name_H-M    "P 1"
_symmetry_int_tables_number       1

loop_
  _symmetry_equiv_pos_as_xyz
  'x, y, z'

loop_
  _atom_site_label
  _atom_site_occupancy
  _atom_site_fract_x
  _atom_site_fract_y
  _atom_site_fract_z
  _atom_site_thermal_displace_type
  _atom_site_B_iso_or_equiv
  _atom_site_type_symbol
  C1       1.0000 0.48612  0.42822  0.54271  Biso   1.000  C
  C2       1.0000 0.52904  0.46959  0.51834  Biso   1.000  C
  H1       1.0000 0.46138  0.40454  0.51443  Biso   1.000  H
  C3       1.0000 0.47919  0.42129  0.60800  Biso   1.000  C
  C4       1.0000 0.53953  0.47411  0.44732  Biso   1.000  C
  C5       1.0000 0.56389  0.50507  0.56012  Biso   1.000  C
  H2       1.0000 0.44956  0.39304  0.62422  Biso   1.000  H
  C6       1.0000 0.51531  0.45552  0.64993  Biso   1.000  C
  N1       1.0000 0.56638  0.44598  0.43158  Biso   1.000  N
  H3       1.0000 0.50747  0.45982  0.42324  Biso   1.000  H
  H4       1.0000 0.56067  0.51005  0.43535  Biso   1.000  H
  C7       1.0000 0.55727  0.49817  0.62551  Biso   1.000  C
  H5       1.0000 0.59256  0.53433  0.54376  Biso   1.000  H
  C8       1.0000 0.51071  0.44429  0.72085  Biso   1.000  C
  C9       1.0000 0.53971  0.39610  0.42076  Biso   1.000  C
  C10      1.0000 0.61669  0.46940  0.43435  Biso   1.000  C
  H6       1.0000 0.58146  0.52264  0.65374  Biso   1.000  H
  N2       1.0000 0.54106  0.41970  0.73630  Biso   1.000  N
  H7       1.0000 0.52336  0.47592  0.74546  Biso   1.000  H
  H8       1.0000 0.47495  0.42163  0.73234  Biso   1.000  H
  H9       1.0000 0.50399  0.37985  0.41823  Biso   1.000  H
  C11      1.0000 0.56312  0.36835  0.41327  Biso   1.000  C
  C12      1.0000 0.64150  0.44274  0.42810  Biso   1.000  C
  H10      1.0000 0.63549  0.50484  0.44074  Biso   1.000  H
  C13      1.0000 0.52054  0.36944  0.72953  Biso   1.000  C
  C14      1.0000 0.58992  0.44851  0.75194  Biso   1.000  C
  C15      1.0000 0.61523  0.39078  0.41828  Biso   1.000  C
  H11      1.0000 0.54355  0.33332  0.40464  Biso   1.000  H
  H12      1.0000 0.67729  0.46005  0.43053  Biso   1.000  H
  H13      1.0000 0.48567  0.34934  0.72023  Biso   1.000  H
  C16      1.0000 0.54963  0.34723  0.73592  Biso   1.000  C
  C17      1.0000 0.62020  0.42770  0.75862  Biso   1.000  C
  H14      1.0000 0.60357  0.48365  0.75843  Biso   1.000  H
  C18      1.0000 0.64172  0.36122  0.41618  Biso   1.000  C
  H15      1.0000 0.53448  0.31164  0.73163  Biso   1.000  H
  C19      1.0000 0.60131  0.37627  0.74875  Biso   1.000  C
  H16      1.0000 0.65456  0.44862  0.77016  Biso   1.000  H
  C20      1.0000 0.69427  0.38554  0.41599  Biso   1.000  C
  C21      1.0000 0.61446  0.30873  0.41599  Biso   1.000  C
  C22      1.0000 0.63472  0.35402  0.75051  Biso   1.000  C
  C23      1.0000 0.71950  0.35828  0.41618  Biso   1.000  C
  H17      1.0000 0.71318  0.42132  0.41575  Biso   1.000  H
  H18      1.0000 0.57869  0.29184  0.41575  Biso   1.000  H
  C24      1.0000 0.63878  0.28049  0.41618  Biso   1.000  C
  C25      1.0000 0.68716  0.38516  0.75037  Biso   1.000  C
  C26      1.0000 0.61486  0.30202  0.75037  Biso   1.000  C
  C27      1.0000 0.69126  0.30572  0.41599  Biso   1.000  C
  C28      1.0000 0.77556  0.38479  0.41828  Biso   1.000  C
  C29      1.0000 0.60924  0.22442  0.41828  Biso   1.000  C
  C30      1.0000 0.71928  0.36529  0.75051  Biso   1.000  C
  H19      1.0000 0.70115  0.42072  0.75013  Biso   1.000  H
  H20      1.0000 0.57928  0.28042  0.75013  Biso   1.000  H
  C31      1.0000 0.64601  0.28072  0.75051  Biso   1.000  C
  H21      1.0000 0.70817  0.28683  0.41575  Biso   1.000  H
  C32      1.0000 0.80127  0.35854  0.42810  Biso   1.000  C
  C33      1.0000 0.80519  0.43686  0.41327  Biso   1.000  C
  C34      1.0000 0.55728  0.19875  0.42810  Biso   1.000  C
  C35      1.0000 0.63168  0.19479  0.41327  Biso   1.000  C
  C36      1.0000 0.77498  0.39870  0.74875  Biso   1.000  C
  C37      1.0000 0.69799  0.31284  0.75037  Biso   1.000  C
  C38      1.0000 0.62371  0.22503  0.74875  Biso   1.000  C
  H22      1.0000 0.78277  0.32272  0.43053  Biso   1.000  H
  C39      1.0000 0.85271  0.38332  0.43435  Biso   1.000  C
  C40      1.0000 0.85643  0.46031  0.42076  Biso   1.000  C
  H23      1.0000 0.78977  0.45643  0.40464  Biso   1.000  H
  H24      1.0000 0.53997  0.21722  0.43053  Biso   1.000  H
  C41      1.0000 0.53060  0.14728  0.43435  Biso   1.000  C
  C42      1.0000 0.60389  0.14358  0.42076  Biso   1.000  C
  H25      1.0000 0.66668  0.21025  0.40464  Biso   1.000  H
  C43      1.0000 0.79759  0.45040  0.73592  Biso   1.000  C
  C44      1.0000 0.80753  0.37981  0.75862  Biso   1.000  C
  H26      1.0000 0.71955  0.29882  0.75013  Biso   1.000  H
  C45      1.0000 0.65280  0.20240  0.73592  Biso   1.000  C
  C46      1.0000 0.57231  0.19249  0.75862  Biso   1.000  C
  N3       1.0000 0.87964  0.43365  0.43158  Biso   1.000  N
  H27      1.0000 0.86938  0.36454  0.44074  Biso   1.000  H
  H28      1.0000 0.87585  0.49602  0.41823  Biso   1.000  H
  N4       1.0000 0.55403  0.12039  0.43158  Biso   1.000  N
  H29      1.0000 0.49518  0.13065  0.44074  Biso   1.000  H
  H30      1.0000 0.62016  0.12413  0.41823  Biso   1.000  H
  C47      1.0000 0.84890  0.47947  0.72953  Biso   1.000  C
  H31      1.0000 0.77719  0.46555  0.73163  Biso   1.000  H
  H32      1.0000 0.79405  0.34542  0.77016  Biso   1.000  H
  C48      1.0000 0.85858  0.41009  0.75194  Biso   1.000  C
  C49      1.0000 0.63057  0.15109  0.72953  Biso   1.000  C
  H33      1.0000 0.68839  0.22284  0.73163  Biso   1.000  H
  H34      1.0000 0.55138  0.20595  0.77016  Biso   1.000  H
  C50      1.0000 0.55150  0.14140  0.75194  Biso   1.000  C
  C51      1.0000 0.93458  0.46046  0.44732  Biso   1.000  C
  C52      1.0000 0.52589  0.06542  0.44732  Biso   1.000  C
  N5       1.0000 0.87864  0.45895  0.73630  Biso   1.000  N
  H35      1.0000 0.86369  0.51434  0.72023  Biso   1.000  H
  H36      1.0000 0.88007  0.39644  0.75843  Biso   1.000  H
  N6       1.0000 0.58029  0.12134  0.73630  Biso   1.000  N
  H37      1.0000 0.65069  0.13634  0.72023  Biso   1.000  H
  H38      1.0000 0.51638  0.11994  0.75843  Biso   1.000  H
  H39      1.0000 0.95239  0.49255  0.42324  Biso   1.000  H
  H40      1.0000 0.94936  0.43935  0.43535  Biso   1.000  H
  C53      1.0000 0.94056  0.47098  0.51834  Biso   1.000  C
  H41      1.0000 0.54017  0.04762  0.42324  Biso   1.000  H
  H42      1.0000 0.48999  0.05064  0.43535  Biso   1.000  H
  C54      1.0000 0.53045  0.05946  0.51834  Biso   1.000  C
  C55      1.0000 0.93357  0.48927  0.72085  Biso   1.000  C
  C56      1.0000 0.55572  0.06644  0.72085  Biso   1.000  C
  C57      1.0000 0.94209  0.51389  0.54271  Biso   1.000  C
  C58      1.0000 0.94118  0.43610  0.56012  Biso   1.000  C
  C59      1.0000 0.57180  0.05792  0.54271  Biso   1.000  C
  C60      1.0000 0.49495  0.05886  0.56012  Biso   1.000  C
  C61      1.0000 0.94022  0.48467  0.64993  Biso   1.000  C
  H43      1.0000 0.95256  0.47664  0.74546  Biso   1.000  H
  H44      1.0000 0.94670  0.52505  0.73234  Biso   1.000  H
  C62      1.0000 0.54450  0.05980  0.64993  Biso   1.000  C
  H45      1.0000 0.52408  0.04743  0.74546  Biso   1.000  H
  H46      1.0000 0.57835  0.05332  0.73234  Biso   1.000  H
  H47      1.0000 0.94316  0.53863  0.51443  Biso   1.000  H
  C63      1.0000 0.94210  0.52083  0.60800  Biso   1.000  C
  C64      1.0000 0.94090  0.44274  0.62551  Biso   1.000  C
  H48      1.0000 0.94177  0.40745  0.54376  Biso   1.000  H
  H49      1.0000 0.59545  0.05682  0.51443  Biso   1.000  H
  C65      1.0000 0.57874  0.05788  0.60800  Biso   1.000  C
  C66      1.0000 0.50184  0.05912  0.62551  Biso   1.000  C
  H50      1.0000 0.46566  0.05822  0.54376  Biso   1.000  H
  H51      1.0000 0.94348  0.55043  0.62422  Biso   1.000  H
  H52      1.0000 0.94118  0.41853  0.65374  Biso   1.000  H
  H53      1.0000 0.60696  0.05652  0.62422  Biso   1.000  H
  H54      1.0000 0.47736  0.05882  0.65374  Biso   1.000  H
  C67      1.0000 0.43612  0.49496  0.43988  Biso   1.000  C
  C68      1.0000 0.44274  0.50186  0.37449  Biso   1.000  C
  C69      1.0000 0.47098  0.53044  0.48166  Biso   1.000  C
  H55      1.0000 0.40743  0.46567  0.45629  Biso   1.000  H
  C70      1.0000 0.48468  0.54447  0.35007  Biso   1.000  C
  H56      1.0000 0.41854  0.47735  0.34626  Biso   1.000  H
  C71      1.0000 0.51389  0.57181  0.45729  Biso   1.000  C
  C72      1.0000 0.46047  0.52588  0.55273  Biso   1.000  C
  C73      1.0000 0.52086  0.57875  0.39200  Biso   1.000  C
  C74      1.0000 0.48929  0.55571  0.27915  Biso   1.000  C
  H57      1.0000 0.53863  0.59549  0.48557  Biso   1.000  H
  N7       1.0000 0.43365  0.55401  0.56842  Biso   1.000  N
  H58      1.0000 0.49253  0.54017  0.57676  Biso   1.000  H
  H59      1.0000 0.43935  0.48999  0.56465  Biso   1.000  H
  H60      1.0000 0.55046  0.60699  0.37578  Biso   1.000  H
  N8       1.0000 0.45893  0.58029  0.26370  Biso   1.000  N
  H61      1.0000 0.47664  0.52407  0.25459  Biso   1.000  H
  H62      1.0000 0.52504  0.57837  0.26766  Biso   1.000  H
  C75      1.0000 0.38331  0.53060  0.56565  Biso   1.000  C
  C76      1.0000 0.46029  0.60390  0.57924  Biso   1.000  C
  C77      1.0000 0.47946  0.63055  0.27047  Biso   1.000  C
  C78      1.0000 0.41008  0.55148  0.24806  Biso   1.000  C
  C79      1.0000 0.35852  0.55729  0.57190  Biso   1.000  C
  H63      1.0000 0.36454  0.49515  0.55926  Biso   1.000  H
  H64      1.0000 0.49606  0.62018  0.58177  Biso   1.000  H
  C80      1.0000 0.43689  0.63168  0.58673  Biso   1.000  C
  H65      1.0000 0.51435  0.65069  0.27977  Biso   1.000  H
  C81      1.0000 0.45039  0.65280  0.26408  Biso   1.000  C
  C82      1.0000 0.37980  0.57230  0.24143  Biso   1.000  C
  H66      1.0000 0.39645  0.51638  0.24157  Biso   1.000  H
  C83      1.0000 0.38479  0.60925  0.58172  Biso   1.000  C
  H67      1.0000 0.32273  0.53998  0.56947  Biso   1.000  H
  H68      1.0000 0.45644  0.66668  0.59536  Biso   1.000  H
  H69      1.0000 0.46552  0.68836  0.26837  Biso   1.000  H
  C84      1.0000 0.39869  0.62373  0.25130  Biso   1.000  C
  H70      1.0000 0.34543  0.55137  0.22989  Biso   1.000  H
  C85      1.0000 0.35828  0.63877  0.58382  Biso   1.000  C
  C86      1.0000 0.36527  0.64597  0.24953  Biso   1.000  C
  C87      1.0000 0.30572  0.61445  0.58406  Biso   1.000  C
  C88      1.0000 0.38557  0.69126  0.58406  Biso   1.000  C
  C89      1.0000 0.31285  0.61487  0.24968  Biso   1.000  C
  C90      1.0000 0.38515  0.69801  0.24968  Biso   1.000  C
  C91      1.0000 0.28050  0.64171  0.58382  Biso   1.000  C
  H71      1.0000 0.28682  0.57867  0.58425  Biso   1.000  H
  H72      1.0000 0.42133  0.70819  0.58425  Biso   1.000  H
  C92      1.0000 0.36122  0.71950  0.58382  Biso   1.000  C
  C93      1.0000 0.28073  0.63474  0.24953  Biso   1.000  C
  H73      1.0000 0.29885  0.57927  0.24987  Biso   1.000  H
  H74      1.0000 0.42075  0.71958  0.24987  Biso   1.000  H
  C94      1.0000 0.35402  0.71927  0.24953  Biso   1.000  C
  C95      1.0000 0.30874  0.69428  0.58406  Biso   1.000  C
  C96      1.0000 0.22443  0.61521  0.58172  Biso   1.000  C
  C97      1.0000 0.39079  0.77557  0.58172  Biso   1.000  C
  C98      1.0000 0.22504  0.60133  0.25130  Biso   1.000  C
  C99      1.0000 0.30201  0.68715  0.24968  Biso   1.000  C
  C100     1.0000 0.37628  0.77497  0.25130  Biso   1.000  C
  H75      1.0000 0.29183  0.71317  0.58425  Biso   1.000  H
  C101     1.0000 0.19875  0.64149  0.57190  Biso   1.000  C
  C102     1.0000 0.19481  0.56314  0.58673  Biso   1.000  C
  C103     1.0000 0.44271  0.80125  0.57190  Biso   1.000  C
  C104     1.0000 0.36835  0.80521  0.58673  Biso   1.000  C
  C105     1.0000 0.20242  0.54964  0.26408  Biso   1.000  C
  C106     1.0000 0.19247  0.62018  0.24143  Biso   1.000  C
  H76      1.0000 0.28045  0.70118  0.24987  Biso   1.000  H
  C107     1.0000 0.34720  0.79759  0.26408  Biso   1.000  C
  C108     1.0000 0.42769  0.80751  0.24143  Biso   1.000  C
  H77      1.0000 0.21723  0.67727  0.56947  Biso   1.000  H
  C109     1.0000 0.14729  0.61668  0.56565  Biso   1.000  C
  C110     1.0000 0.14360  0.53968  0.57924  Biso   1.000  C
  H78      1.0000 0.21023  0.54357  0.59536  Biso   1.000  H
  H79      1.0000 0.46002  0.78277  0.56947  Biso   1.000  H
  C111     1.0000 0.46940  0.85272  0.56565  Biso   1.000  C
  C112     1.0000 0.39611  0.85641  0.57924  Biso   1.000  C
  H80      1.0000 0.33334  0.78978  0.59536  Biso   1.000  H
  C113     1.0000 0.15110  0.52053  0.27047  Biso   1.000  C
  H81      1.0000 0.22283  0.53448  0.26837  Biso   1.000  H
  H82      1.0000 0.20594  0.65457  0.22989  Biso   1.000  H
  C114     1.0000 0.14141  0.58991  0.24806  Biso   1.000  C
  C115     1.0000 0.36943  0.84891  0.27047  Biso   1.000  C
  H83      1.0000 0.31161  0.77715  0.26837  Biso   1.000  H
  H84      1.0000 0.44863  0.79408  0.22989  Biso   1.000  H
  C116     1.0000 0.44850  0.85860  0.24806  Biso   1.000  C
  N9       1.0000 0.12038  0.56638  0.56842  Biso   1.000  N
  H85      1.0000 0.13062  0.63545  0.55926  Biso   1.000  H
  H86      1.0000 0.12415  0.50397  0.58177  Biso   1.000  H
  N10      1.0000 0.44599  0.87964  0.56842  Biso   1.000  N
  H87      1.0000 0.50483  0.86938  0.55926  Biso   1.000  H
  H88      1.0000 0.37984  0.87587  0.58177  Biso   1.000  H
  N11      1.0000 0.12137  0.54108  0.26370  Biso   1.000  N
  H89      1.0000 0.13636  0.48569  0.27977  Biso   1.000  H
  H90      1.0000 0.11993  0.60356  0.24157  Biso   1.000  H
  N12      1.0000 0.41970  0.87866  0.26370  Biso   1.000  N
  H91      1.0000 0.34936  0.86369  0.27977  Biso   1.000  H
  H92      1.0000 0.48364  0.88009  0.24157  Biso   1.000  H
  C117     1.0000 0.06542  0.53953  0.55273  Biso   1.000  C
  C118     1.0000 0.47411  0.93457  0.55273  Biso   1.000  C
  C119     1.0000 0.06643  0.51072  0.27915  Biso   1.000  C
  C120     1.0000 0.44430  0.93359  0.27915  Biso   1.000  C
  H93      1.0000 0.04763  0.50748  0.57676  Biso   1.000  H
  H94      1.0000 0.05065  0.56068  0.56465  Biso   1.000  H
  C121     1.0000 0.05944  0.52901  0.48166  Biso   1.000  C
  H95      1.0000 0.45983  0.95237  0.57676  Biso   1.000  H
  H96      1.0000 0.51004  0.94936  0.56465  Biso   1.000  H
  C122     1.0000 0.46960  0.94057  0.48166  Biso   1.000  C
  C123     1.0000 0.05981  0.51532  0.35007  Biso   1.000  C
  H97      1.0000 0.04743  0.52336  0.25459  Biso   1.000  H
  H98      1.0000 0.05335  0.47498  0.26766  Biso   1.000  H
  C124     1.0000 0.45552  0.94023  0.35007  Biso   1.000  C
  H99      1.0000 0.47592  0.95256  0.25459  Biso   1.000  H
  H100     1.0000 0.42165  0.94668  0.26766  Biso   1.000  H
  C125     1.0000 0.05792  0.48614  0.45729  Biso   1.000  C
  C126     1.0000 0.05885  0.56389  0.43988  Biso   1.000  C
  C127     1.0000 0.42820  0.94208  0.45729  Biso   1.000  C
  C128     1.0000 0.50507  0.94117  0.43988  Biso   1.000  C
  C129     1.0000 0.05789  0.47916  0.39200  Biso   1.000  C
  C130     1.0000 0.05914  0.55729  0.37449  Biso   1.000  C
  C131     1.0000 0.42129  0.94212  0.39200  Biso   1.000  C
  C132     1.0000 0.49816  0.94087  0.37449  Biso   1.000  C
  H101     1.0000 0.05683  0.46137  0.48557  Biso   1.000  H
  H102     1.0000 0.05824  0.59258  0.45629  Biso   1.000  H
  H103     1.0000 0.40455  0.94317  0.48557  Biso   1.000  H
  H104     1.0000 0.53434  0.94178  0.45629  Biso   1.000  H
  H105     1.0000 0.05652  0.44957  0.37578  Biso   1.000  H
  H106     1.0000 0.05882  0.58146  0.34626  Biso   1.000  H
  H107     1.0000 0.39304  0.94347  0.37578  Biso   1.000  H
  H108     1.0000 0.52264  0.94117  0.34626  Biso   1.000  H
  C133     1.0000 0.26691  0.15595  0.38751  Biso   1.000  C
  C134     1.0000 0.27356  0.15135  0.31659  Biso   1.000  C
  H109     1.0000 0.28590  0.14332  0.41212  Biso   1.000  H
  N13      1.0000 0.21198  0.12564  0.40297  Biso   1.000  N
  N14      1.0000 0.21200  0.12560  0.40297  Biso   1.000  N
  H110     1.0000 0.28002  0.19170  0.39901  Biso   1.000  H
  C135     1.0000 0.27544  0.18751  0.27467  Biso   1.000  C
  C136     1.0000 0.27423  0.10938  0.29217  Biso   1.000  C
  C137     1.0000 0.27424  0.10942  0.29217  Biso   1.000  C
  C138     1.0000 0.19192  0.07677  0.41861  Biso   1.000  C
  C139     1.0000 0.18227  0.14615  0.39619  Biso   1.000  C
  C140     1.0000 0.19196  0.07677  0.41861  Biso   1.000  C
  C141     1.0000 0.27542  0.18054  0.20938  Biso   1.000  C
  H111     1.0000 0.27679  0.21711  0.29089  Biso   1.000  H
  C142     1.0000 0.27449  0.10279  0.22678  Biso   1.000  C
  C143     1.0000 0.27452  0.10279  0.22678  Biso   1.000  C
  H112     1.0000 0.27452  0.08521  0.32041  Biso   1.000  H
  C144     1.0000 0.13093  0.11708  0.40259  Biso   1.000  C
  H113     1.0000 0.19701  0.18099  0.38689  Biso   1.000  H
  C145     1.0000 0.13095  0.11704  0.40259  Biso   1.000  C
  H114     1.0000 0.19703  0.18103  0.38689  Biso   1.000  H
  C146     1.0000 0.14085  0.04645  0.42529  Biso   1.000  C
  H115     1.0000 0.21341  0.06312  0.42510  Biso   1.000  H
  C147     1.0000 0.14087  0.04649  0.42529  Biso   1.000  C
  H116     1.0000 0.27650  0.20531  0.18109  Biso   1.000  H
  C148     1.0000 0.27390  0.13766  0.18501  Biso   1.000  C
  H117     1.0000 0.27511  0.07413  0.21038  Biso   1.000  H
  H118     1.0000 0.11051  0.13220  0.39829  Biso   1.000  H
  C149     1.0000 0.10832  0.06538  0.41541  Biso   1.000  C
  H119     1.0000 0.12739  0.01210  0.43678  Biso   1.000  H
  C150     1.0000 0.26792  0.12714  0.11399  Biso   1.000  C
  C151     1.0000 0.05264  0.03194  0.41713  Biso   1.000  C
  N15      1.0000 0.21296  0.10030  0.09825  Biso   1.000  N
  H120     1.0000 0.28573  0.15923  0.08990  Biso   1.000  H
  H121     1.0000 0.28270  0.10603  0.10202  Biso   1.000  H
  H122     1.0000 0.28272  0.10599  0.10202  Biso   1.000  H
  C152     1.0000 0.02048  0.05181  0.41704  Biso   1.000  C
  C153     1.0000 0.03133  0.97953  0.41704  Biso   1.000  C
  C154     1.0000 0.18605  0.05000  0.10102  Biso   1.000  C
  C155     1.0000 0.18977  0.12699  0.08742  Biso   1.000  C
  H123     1.0000 0.03449  0.08740  0.41680  Biso   1.000  H
  C156     1.0000 0.96804  0.02066  0.41713  Biso   1.000  C
  C157     1.0000 0.96806  0.02070  0.41713  Biso   1.000  C
  C158     1.0000 0.97932  0.94740  0.41713  Biso   1.000  C
  C159     1.0000 0.97935  0.94740  0.41713  Biso   1.000  C
  H124     1.0000 0.05289  0.96550  0.41680  Biso   1.000  H
  C160     1.0000 0.13459  0.02519  0.09477  Biso   1.000  C
  H125     1.0000 0.20270  0.03118  0.10741  Biso   1.000  H
  H126     1.0000 0.20272  0.03122  0.10741  Biso   1.000  H
  C161     1.0000 0.13853  0.10354  0.07994  Biso   1.000  C
  H127     1.0000 0.20922  0.16270  0.08490  Biso   1.000  H
  C162     1.0000 0.94819  0.96867  0.41704  Biso   1.000  C
  C163     1.0000 0.94820  0.96870  0.41704  Biso   1.000  C
  C164     1.0000 0.93465  0.04295  0.41541  Biso   1.000  C
  C165     1.0000 0.95705  0.89171  0.41541  Biso   1.000  C
  C166     1.0000 0.10890  0.05147  0.08494  Biso   1.000  C
  H128     1.0000 0.11611  0.98940  0.09720  Biso   1.000  H
  H129     1.0000 0.12311  0.12311  0.07130  Biso   1.000  H
  H130     1.0000 0.91262  0.94710  0.41680  Biso   1.000  H
  C167     1.0000 0.88295  0.01388  0.40259  Biso   1.000  C
  C168     1.0000 0.95354  0.09438  0.42529  Biso   1.000  C
  C169     1.0000 0.98614  0.86909  0.40259  Biso   1.000  C
  C170     1.0000 0.90565  0.85917  0.42529  Biso   1.000  C
  C171     1.0000 0.90562  0.85917  0.42529  Biso   1.000  C
  C172     1.0000 0.05284  0.02496  0.08284  Biso   1.000  C
  H131     1.0000 0.86780  0.97828  0.39829  Biso   1.000  H
  H132     1.0000 0.86782  0.97832  0.39829  Biso   1.000  H
  C173     1.0000 0.85388  0.03612  0.39619  Biso   1.000  C
  H133     1.0000 0.98790  0.11530  0.43678  Biso   1.000  H
  C174     1.0000 0.92324  0.11515  0.41861  Biso   1.000  C
  C175     1.0000 0.92326  0.11519  0.41861  Biso   1.000  C
  C176     1.0000 0.96391  0.81777  0.39619  Biso   1.000  C
  H134     1.0000 0.02169  0.88952  0.39829  Biso   1.000  H
  H135     1.0000 0.02173  0.88952  0.39829  Biso   1.000  H
  C177     1.0000 0.88484  0.80808  0.41861  Biso   1.000  C
  H136     1.0000 0.88472  0.87263  0.43678  Biso   1.000  H
  C178     1.0000 0.02761  0.05222  0.08265  Biso   1.000  C
  C179     1.0000 0.02458  0.97236  0.08265  Biso   1.000  C
  C180     1.0000 0.02460  0.97240  0.08265  Biso   1.000  C
  N16      1.0000 0.87440  0.08638  0.40297  Biso   1.000  N
  H137     1.0000 0.81899  0.01599  0.38689  Biso   1.000  H
  H138     1.0000 0.81901  0.01602  0.38689  Biso   1.000  H
  H139     1.0000 0.93689  0.15030  0.42510  Biso   1.000  H
  N17      1.0000 0.91363  0.78802  0.40297  Biso   1.000  N
  H140     1.0000 0.98400  0.80303  0.38689  Biso   1.000  H
  H141     1.0000 0.98403  0.80303  0.38689  Biso   1.000  H
  H142     1.0000 0.84970  0.78659  0.42510  Biso   1.000  H
  H143     1.0000 0.84972  0.78662  0.42510  Biso   1.000  H
  C181     1.0000 0.97506  0.02790  0.08284  Biso   1.000  C
  H144     1.0000 0.04652  0.08801  0.08242  Biso   1.000  H
  H145     1.0000 0.04648  0.08801  0.08242  Biso   1.000  H
  C182     1.0000 0.97212  0.94717  0.08284  Biso   1.000  C
  H146     1.0000 0.04151  0.95351  0.08242  Biso   1.000  H
  C183     1.0000 0.84405  0.11097  0.38751  Biso   1.000  C
  C184     1.0000 0.88906  0.73312  0.38751  Biso   1.000  C
  C185     1.0000 0.94777  0.97542  0.08265  Biso   1.000  C
  C186     1.0000 0.94780  0.97542  0.08265  Biso   1.000  C
  C187     1.0000 0.94855  0.05743  0.08494  Biso   1.000  C
  C188     1.0000 0.94857  0.05746  0.08494  Biso   1.000  C
  C189     1.0000 0.94255  0.89111  0.08494  Biso   1.000  C
  C190     1.0000 0.94258  0.89111  0.08494  Biso   1.000  C
  C191     1.0000 0.84865  0.12220  0.31659  Biso   1.000  C
  H147     1.0000 0.85670  0.14260  0.41212  Biso   1.000  H
  H148     1.0000 0.80829  0.08831  0.39901  Biso   1.000  H
  C192     1.0000 0.87782  0.72644  0.31659  Biso   1.000  C
  H149     1.0000 0.85742  0.71412  0.41212  Biso   1.000  H
  H150     1.0000 0.91169  0.72000  0.39901  Biso   1.000  H
  C193     1.0000 0.87781  0.72648  0.31659  Biso   1.000  C
  C194     1.0000 0.87784  0.72648  0.31659  Biso   1.000  C
  H151     1.0000 0.91203  0.95852  0.08242  Biso   1.000  H
  C195     1.0000 0.97482  0.10938  0.09477  Biso   1.000  C
  C196     1.0000 0.89645  0.03499  0.07994  Biso   1.000  C
  C197     1.0000 0.89647  0.03503  0.07994  Biso   1.000  C
  C198     1.0000 0.97484  0.10942  0.09477  Biso   1.000  C
  C199     1.0000 0.89062  0.86543  0.09477  Biso   1.000  C
  C200     1.0000 0.96499  0.86147  0.07994  Biso   1.000  C
  C201     1.0000 0.96502  0.86147  0.07994  Biso   1.000  C
  C202     1.0000 0.81248  0.08793  0.27467  Biso   1.000  C
  C203     1.0000 0.81250  0.08797  0.27467  Biso   1.000  C
  C204     1.0000 0.89061  0.16485  0.29217  Biso   1.000  C
  C205     1.0000 0.81251  0.08793  0.27467  Biso   1.000  C
  C206     1.0000 0.81253  0.08797  0.27467  Biso   1.000  C
  C207     1.0000 0.83518  0.72580  0.29217  Biso   1.000  C
  C208     1.0000 0.91208  0.72456  0.27467  Biso   1.000  C
  C209     1.0000 0.95003  0.13608  0.10102  Biso   1.000  C
  H152     1.0000 0.01061  0.12669  0.09720  Biso   1.000  H
  H153     1.0000 0.01060  0.12673  0.09720  Biso   1.000  H
  H154     1.0000 0.01063  0.12673  0.09720  Biso   1.000  H
  H155     1.0000 0.87689  0.00000  0.07130  Biso   1.000  H
  C210     1.0000 0.87302  0.06278  0.08742  Biso   1.000  C
  H156     1.0000 0.87331  0.88390  0.09720  Biso   1.000  H
  C211     1.0000 0.86394  0.81396  0.10102  Biso   1.000  C
  C212     1.0000 0.93723  0.81026  0.08742  Biso   1.000  C
  H157     1.0000 1.00000  0.87689  0.07130  Biso   1.000  H
  H158     1.0000 0.00002  0.87693  0.07130  Biso   1.000  H
  C213     1.0000 0.81946  0.09491  0.20938  Biso   1.000  C
  H159     1.0000 0.78290  0.05973  0.29089  Biso   1.000  H
  H160     1.0000 0.78291  0.05969  0.29089  Biso   1.000  H
  C214     1.0000 0.89723  0.17175  0.22678  Biso   1.000  C
  C215     1.0000 0.89725  0.17171  0.22678  Biso   1.000  C
  H161     1.0000 0.91478  0.18928  0.32041  Biso   1.000  H
  H162     1.0000 0.91480  0.18932  0.32041  Biso   1.000  H
  C216     1.0000 0.90514  0.72460  0.20938  Biso   1.000  C
  H163     1.0000 0.94030  0.72320  0.29089  Biso   1.000  H
  C217     1.0000 0.82827  0.72550  0.22678  Biso   1.000  C
  H164     1.0000 0.81070  0.72550  0.32041  Biso   1.000  H
  N18      1.0000 0.89972  0.11266  0.09825  Biso   1.000  N
  H165     1.0000 0.96881  0.17149  0.10741  Biso   1.000  H
  H166     1.0000 0.96883  0.17152  0.10741  Biso   1.000  H
  H167     1.0000 0.83730  0.04653  0.08490  Biso   1.000  H
  H168     1.0000 0.83733  0.04653  0.08490  Biso   1.000  H
  H169     1.0000 0.82851  0.79729  0.10741  Biso   1.000  H
  N19      1.0000 0.88737  0.78708  0.09825  Biso   1.000  N
  H170     1.0000 0.95350  0.79081  0.08490  Biso   1.000  H
  C218     1.0000 0.86238  0.13627  0.18501  Biso   1.000  C
  H171     1.0000 0.79470  0.07119  0.18109  Biso   1.000  H
  H172     1.0000 0.79472  0.07123  0.18109  Biso   1.000  H
  H173     1.0000 0.92590  0.20101  0.21038  Biso   1.000  H
  C219     1.0000 0.86377  0.72611  0.18501  Biso   1.000  C
  C220     1.0000 0.86379  0.72614  0.18501  Biso   1.000  C
  H174     1.0000 0.92882  0.72350  0.18109  Biso   1.000  H
  H175     1.0000 0.79900  0.72490  0.21038  Biso   1.000  H
  C221     1.0000 0.87287  0.14079  0.11399  Biso   1.000  C
  C222     1.0000 0.85923  0.73210  0.11399  Biso   1.000  C
  H176     1.0000 0.84081  0.12650  0.08990  Biso   1.000  H
  H177     1.0000 0.89399  0.17669  0.10202  Biso   1.000  H
  H178     1.0000 0.89401  0.17673  0.10202  Biso   1.000  H
  H179     1.0000 0.87351  0.71430  0.08990  Biso   1.000  H
  H180     1.0000 0.82331  0.71728  0.10202  Biso   1.000  H
  H181     1.0000 0.82333  0.71732  0.10202  Biso   1.000  H
  C223     1.0000 0.11518  0.19196  0.58139  Biso   1.000  C
  N20      1.0000 0.08637  0.21198  0.59703  Biso   1.000  N
  H182     1.0000 0.15030  0.21341  0.57490  Biso   1.000  H
  C224     1.0000 0.09435  0.14083  0.57476  Biso   1.000  C
  C225     1.0000 0.09437  0.14087  0.57476  Biso   1.000  C
  C226     1.0000 0.09438  0.14083  0.57476  Biso   1.000  C
  C227     1.0000 0.09440  0.14087  0.57476  Biso   1.000  C
  C228     1.0000 0.11096  0.26692  0.61249  Biso   1.000  C
  C229     1.0000 0.11516  0.19192  0.58139  Biso   1.000  C
  C230     1.0000 0.03611  0.18227  0.60381  Biso   1.000  C
  C231     1.0000 0.03613  0.18223  0.60381  Biso   1.000  C
  C232     1.0000 0.04295  0.10829  0.58463  Biso   1.000  C
  H183     1.0000 0.11530  0.12741  0.56322  Biso   1.000  H
  H184     1.0000 0.08831  0.28000  0.60099  Biso   1.000  H
  C233     1.0000 0.12218  0.27356  0.68341  Biso   1.000  C
  H185     1.0000 0.14258  0.28588  0.58792  Biso   1.000  H
  H186     1.0000 0.14260  0.28592  0.58792  Biso   1.000  H
  C234     1.0000 0.12221  0.27356  0.68341  Biso   1.000  C
  H187     1.0000 0.01602  0.19701  0.61311  Biso   1.000  H
  H188     1.0000 0.01599  0.19701  0.61311  Biso   1.000  H
  C235     1.0000 0.01388  0.13095  0.59741  Biso   1.000  C
  C236     1.0000 0.02070  0.05264  0.58287  Biso   1.000  C
  C237     1.0000 0.02067  0.05264  0.58287  Biso   1.000  C
  C238     1.0000 0.08792  0.27544  0.72533  Biso   1.000  C
  C239     1.0000 0.16484  0.27423  0.70783  Biso   1.000  C
  H189     1.0000 0.97829  0.11052  0.60171  Biso   1.000  H
  H190     1.0000 0.97832  0.11052  0.60171  Biso   1.000  H
  C240     1.0000 0.05181  0.03133  0.58301  Biso   1.000  C
  C241     1.0000 0.96867  0.02047  0.58301  Biso   1.000  C
  C242     1.0000 0.96869  0.02051  0.58301  Biso   1.000  C
  H191     1.0000 0.05970  0.27680  0.70911  Biso   1.000  H
  C243     1.0000 0.09488  0.27544  0.79062  Biso   1.000  C
  C244     1.0000 0.09491  0.27544  0.79062  Biso   1.000  C
  H192     1.0000 0.18930  0.27450  0.67959  Biso   1.000  H
  C245     1.0000 0.17173  0.27450  0.77322  Biso   1.000  C
  C246     1.0000 0.03196  0.97934  0.58287  Biso   1.000  C
  H193     1.0000 0.08738  0.05290  0.58320  Biso   1.000  H
  C247     1.0000 0.94739  0.96806  0.58287  Biso   1.000  C
  H194     1.0000 0.94711  0.03450  0.58320  Biso   1.000  H
  H195     1.0000 0.07121  0.27650  0.81891  Biso   1.000  H
  C248     1.0000 0.13623  0.27389  0.81499  Biso   1.000  C
  H196     1.0000 0.20100  0.27510  0.78962  Biso   1.000  H
  C249     1.0000 0.97952  0.94819  0.58301  Biso   1.000  C
  C250     1.0000 0.06535  0.95705  0.58463  Biso   1.000  C
  C251     1.0000 0.06537  0.95709  0.58463  Biso   1.000  C
  C252     1.0000 0.89173  0.93466  0.58463  Biso   1.000  C
  C253     1.0000 0.14079  0.26794  0.88606  Biso   1.000  C
  H197     1.0000 0.96551  0.91260  0.58320  Biso   1.000  H
  C254     1.0000 0.11705  0.98612  0.59741  Biso   1.000  C
  C255     1.0000 0.04646  0.90562  0.57476  Biso   1.000  C
  C256     1.0000 0.04648  0.90566  0.57476  Biso   1.000  C
  C257     1.0000 0.86909  0.88296  0.59741  Biso   1.000  C
  C258     1.0000 0.85919  0.95355  0.57476  Biso   1.000  C
  N21      1.0000 0.11265  0.21296  0.90175  Biso   1.000  N
  H198     1.0000 0.12649  0.28570  0.91010  Biso   1.000  H
  H199     1.0000 0.17669  0.28272  0.89803  Biso   1.000  H
  H200     1.0000 0.13220  0.02172  0.60171  Biso   1.000  H
  C259     1.0000 0.14612  0.96388  0.60381  Biso   1.000  C
  C260     1.0000 0.14614  0.96392  0.60381  Biso   1.000  C
  H201     1.0000 0.01210  0.88470  0.56322  Biso   1.000  H
  C261     1.0000 0.07676  0.88485  0.58139  Biso   1.000  C
  H202     1.0000 0.88949  0.86780  0.60171  Biso   1.000  H
  C262     1.0000 0.81778  0.85389  0.60381  Biso   1.000  C
  H203     1.0000 0.87261  0.98790  0.56322  Biso   1.000  H
  C263     1.0000 0.80809  0.92327  0.58139  Biso   1.000  C
  C264     1.0000 0.06277  0.18974  0.91258  Biso   1.000  C
  C265     1.0000 0.13608  0.18608  0.89898  Biso   1.000  C
  H204     1.0000 0.18101  0.98401  0.61311  Biso   1.000  H
  N22      1.0000 0.12562  0.91365  0.59703  Biso   1.000  N
  H205     1.0000 0.06311  0.84970  0.57490  Biso   1.000  H
  N23      1.0000 0.78804  0.87440  0.59703  Biso   1.000  N
  H206     1.0000 0.80299  0.81901  0.61311  Biso   1.000  H
  H207     1.0000 0.78661  0.93692  0.57490  Biso   1.000  H
  H208     1.0000 0.04650  0.20919  0.91510  Biso   1.000  H
  H209     1.0000 0.04652  0.20923  0.91510  Biso   1.000  H
  C266     1.0000 0.03500  0.13857  0.92006  Biso   1.000  C
  C267     1.0000 0.03503  0.13857  0.92006  Biso   1.000  C
  H210     1.0000 0.17149  0.20271  0.89259  Biso   1.000  H
  C268     1.0000 0.10940  0.13461  0.90523  Biso   1.000  C
  C269     1.0000 0.15597  0.88907  0.61249  Biso   1.000  C
  C270     1.0000 0.73309  0.84405  0.61249  Biso   1.000  C
  H211     1.0000 0.00000  0.12311  0.92870  Biso   1.000  H
  C271     1.0000 0.05744  0.10893  0.91506  Biso   1.000  C
  C272     1.0000 0.05747  0.10893  0.91506  Biso   1.000  C
  H212     1.0000 0.12669  0.11610  0.90280  Biso   1.000  H
  H213     1.0000 0.12672  0.11610  0.90280  Biso   1.000  H
  H214     1.0000 0.14330  0.85740  0.58792  Biso   1.000  H
  C273     1.0000 0.15136  0.87783  0.68341  Biso   1.000  C
  H215     1.0000 0.19173  0.91173  0.60099  Biso   1.000  H
  H216     1.0000 0.71410  0.85668  0.58792  Biso   1.000  H
  C274     1.0000 0.72644  0.84865  0.68341  Biso   1.000  C
  H217     1.0000 0.71412  0.85672  0.58792  Biso   1.000  H
  H218     1.0000 0.71998  0.80830  0.60099  Biso   1.000  H
  C275     1.0000 0.02790  0.05286  0.91716  Biso   1.000  C
  C276     1.0000 0.18752  0.91207  0.72533  Biso   1.000  C
  C277     1.0000 0.10940  0.83519  0.70783  Biso   1.000  C
  C278     1.0000 0.18749  0.91207  0.72533  Biso   1.000  C
  C279     1.0000 0.72458  0.81253  0.72533  Biso   1.000  C
  C280     1.0000 0.72577  0.89062  0.70783  Biso   1.000  C
  C281     1.0000 0.97542  0.02764  0.91739  Biso   1.000  C
  C282     1.0000 0.05223  0.02458  0.91739  Biso   1.000  C
  C283     1.0000 0.05221  0.02462  0.91739  Biso   1.000  C
  C284     1.0000 0.05225  0.02462  0.91739  Biso   1.000  C
  C285     1.0000 0.18056  0.90513  0.79062  Biso   1.000  C
  H219     1.0000 0.21712  0.94031  0.70911  Biso   1.000  H
  H220     1.0000 0.08522  0.81072  0.67959  Biso   1.000  H
  C286     1.0000 0.10279  0.82829  0.77322  Biso   1.000  C
  C287     1.0000 0.72458  0.81946  0.79062  Biso   1.000  C
  H221     1.0000 0.72321  0.78289  0.70911  Biso   1.000  H
  H222     1.0000 0.72323  0.78293  0.70911  Biso   1.000  H
  H223     1.0000 0.72550  0.91482  0.67959  Biso   1.000  H
  C288     1.0000 0.72550  0.89725  0.77322  Biso   1.000  C
  C289     1.0000 0.72553  0.89725  0.77322  Biso   1.000  C
  C290     1.0000 0.94716  0.97504  0.91716  Biso   1.000  C
  C291     1.0000 0.94718  0.97508  0.91716  Biso   1.000  C
  H224     1.0000 0.95851  0.04653  0.91763  Biso   1.000  H
  C292     1.0000 0.02494  0.97210  0.91716  Biso   1.000  C
  C293     1.0000 0.02496  0.97214  0.91716  Biso   1.000  C
  H225     1.0000 0.08802  0.04151  0.91763  Biso   1.000  H
  C294     1.0000 0.13764  0.86377  0.81499  Biso   1.000  C
  H226     1.0000 0.20530  0.92881  0.81891  Biso   1.000  H
  H227     1.0000 0.20533  0.92881  0.81891  Biso   1.000  H
  H228     1.0000 0.07410  0.79899  0.78962  Biso   1.000  H
  H229     1.0000 0.07412  0.79903  0.78962  Biso   1.000  H
  C295     1.0000 0.72612  0.86237  0.81499  Biso   1.000  C
  H230     1.0000 0.72350  0.79469  0.81891  Biso   1.000  H
  H231     1.0000 0.72351  0.79473  0.81891  Biso   1.000  H
  H232     1.0000 0.72491  0.92591  0.78962  Biso   1.000  H
  C296     1.0000 0.97239  0.94778  0.91739  Biso   1.000  C
  C297     1.0000 0.89111  0.94857  0.91506  Biso   1.000  C
  C298     1.0000 0.05149  0.94257  0.91506  Biso   1.000  C
  C299     1.0000 0.12715  0.85924  0.88606  Biso   1.000  C
  C300     1.0000 0.73208  0.87286  0.88606  Biso   1.000  C
  C301     1.0000 0.86541  0.97481  0.90523  Biso   1.000  C
  C302     1.0000 0.86147  0.89646  0.92006  Biso   1.000  C
  C303     1.0000 0.86544  0.97481  0.90523  Biso   1.000  C
  H233     1.0000 0.95348  0.91199  0.91763  Biso   1.000  H
  H234     1.0000 0.95352  0.91199  0.91763  Biso   1.000  H
  C304     1.0000 0.10355  0.96501  0.92006  Biso   1.000  C
  C305     1.0000 0.02521  0.89062  0.90523  Biso   1.000  C
  N24      1.0000 0.10033  0.88737  0.90175  Biso   1.000  N
  H235     1.0000 0.10601  0.82331  0.89803  Biso   1.000  H
  H236     1.0000 0.15922  0.87350  0.91010  Biso   1.000  H
  N25      1.0000 0.78707  0.89970  0.90175  Biso   1.000  N
  H237     1.0000 0.71429  0.84081  0.91010  Biso   1.000  H
  H238     1.0000 0.71732  0.89401  0.89803  Biso   1.000  H
  H239     1.0000 0.71432  0.84081  0.91010  Biso   1.000  H
  C306     1.0000 0.81395  0.95000  0.89898  Biso   1.000  C
  C307     1.0000 0.81397  0.95004  0.89898  Biso   1.000  C
  H240     1.0000 0.88389  0.01060  0.90280  Biso   1.000  H
  H241     1.0000 0.87689  0.87689  0.92870  Biso   1.000  H
  C308     1.0000 0.81025  0.87304  0.91258  Biso   1.000  C
  H242     1.0000 0.87691  0.87693  0.92870  Biso   1.000  H
  H243     1.0000 0.98939  0.87331  0.90280  Biso   1.000  H
  H244     1.0000 0.98942  0.87331  0.90280  Biso   1.000  H
  C309     1.0000 0.04999  0.86396  0.89898  Biso   1.000  C
  H245     1.0000 0.12311  0.00000  0.92870  Biso   1.000  H
  C310     1.0000 0.12698  0.93722  0.91258  Biso   1.000  C
  C311     1.0000 0.12700  0.93726  0.91258  Biso   1.000  C
  H246     1.0000 0.79730  0.96882  0.89259  Biso   1.000  H
  H247     1.0000 0.79081  0.83730  0.91510  Biso   1.000  H
  H248     1.0000 0.03119  0.82851  0.89259  Biso   1.000  H
  H249     1.0000 0.16272  0.95351  0.91510  Biso   1.000  H
  H250     1.0000 0.16269  0.95351  0.91510  Biso   1.000  H
  C312     1.0000 0.27057  0.47694  0.75409  Biso   1.000  C
  N26      1.0000 0.22068  0.45371  0.76492  Biso   1.000  N
  H251     1.0000 0.28683  0.45748  0.75156  Biso   1.000  H
  C313     1.0000 0.29833  0.52814  0.74660  Biso   1.000  C
  C314     1.0000 0.19728  0.48064  0.76768  Biso   1.000  C
  C315     1.0000 0.19256  0.39878  0.78066  Biso   1.000  C
  C316     1.0000 0.27589  0.55778  0.75161  Biso   1.000  C
  H252     1.0000 0.33334  0.54357  0.73797  Biso   1.000  H
  C317     1.0000 0.22396  0.53210  0.76143  Biso   1.000  C
  H253     1.0000 0.16184  0.46397  0.77407  Biso   1.000  H
  H254     1.0000 0.20685  0.38098  0.75657  Biso   1.000  H
  H255     1.0000 0.15661  0.38396  0.76868  Biso   1.000  H
  C318     1.0000 0.19708  0.39278  0.85167  Biso   1.000  C
  C319     1.0000 0.30546  0.61385  0.74951  Biso   1.000  C
  H256     1.0000 0.20665  0.55058  0.76387  Biso   1.000  H
  C320     1.0000 0.23846  0.39123  0.87604  Biso   1.000  C
  C321     1.0000 0.16161  0.39218  0.89345  Biso   1.000  C
  C322     1.0000 0.35792  0.63904  0.74932  Biso   1.000  C
  C323     1.0000 0.28109  0.64205  0.74932  Biso   1.000  C
  H257     1.0000 0.26213  0.39018  0.84776  Biso   1.000  H
  C324     1.0000 0.24538  0.39123  0.94134  Biso   1.000  C
  C325     1.0000 0.16850  0.39244  0.95884  Biso   1.000  C
  H258     1.0000 0.13234  0.39157  0.87709  Biso   1.000  H
  H259     1.0000 0.37485  0.62018  0.74908  Biso   1.000  H
  C326     1.0000 0.38618  0.69164  0.74951  Biso   1.000  C
  C327     1.0000 0.30840  0.69458  0.74951  Biso   1.000  C
  H260     1.0000 0.24535  0.62516  0.74908  Biso   1.000  H
  H261     1.0000 0.27364  0.38988  0.95755  Biso   1.000  H
  C328     1.0000 0.21116  0.39312  0.98326  Biso   1.000  C
  H262     1.0000 0.14404  0.39218  0.98707  Biso   1.000  H
  C329     1.0000 0.44224  0.71814  0.75161  Biso   1.000  C
  C330     1.0000 0.36095  0.71890  0.74932  Biso   1.000  C
  C331     1.0000 0.28188  0.72410  0.75161  Biso   1.000  C
  C332     1.0000 0.22238  0.39976  0.05418  Biso   1.000  C
  C333     1.0000 0.46793  0.69186  0.76143  Biso   1.000  C
  C334     1.0000 0.47187  0.77022  0.74660  Biso   1.000  C
  H263     1.0000 0.37985  0.75468  0.74908  Biso   1.000  H
  C335     1.0000 0.30816  0.77606  0.76143  Biso   1.000  C
  C336     1.0000 0.22978  0.70167  0.74660  Biso   1.000  C
  N27      1.0000 0.24697  0.45469  0.06963  Biso   1.000  N
  H264     1.0000 0.19074  0.38075  0.07879  Biso   1.000  H
  H265     1.0000 0.24503  0.38667  0.06567  Biso   1.000  H
  H266     1.0000 0.44945  0.65608  0.76387  Biso   1.000  H
  C337     1.0000 0.51939  0.71667  0.76768  Biso   1.000  C
  C338     1.0000 0.52306  0.79363  0.75409  Biso   1.000  C
  H267     1.0000 0.45645  0.78978  0.73797  Biso   1.000  H
  H268     1.0000 0.34395  0.79337  0.76387  Biso   1.000  H
  C339     1.0000 0.28335  0.80272  0.76768  Biso   1.000  C
  C340     1.0000 0.20639  0.72946  0.75409  Biso   1.000  C
  H269     1.0000 0.21023  0.66668  0.73797  Biso   1.000  H
  C341     1.0000 0.29724  0.48444  0.06286  Biso   1.000  C
  C342     1.0000 0.21818  0.47475  0.08528  Biso   1.000  C
  N28      1.0000 0.54630  0.76697  0.76492  Biso   1.000  N
  H270     1.0000 0.53604  0.69786  0.77407  Biso   1.000  H
  H271     1.0000 0.54253  0.82938  0.75156  Biso   1.000  H
  N29      1.0000 0.23303  0.77934  0.76492  Biso   1.000  N
  H272     1.0000 0.30211  0.83816  0.77407  Biso   1.000  H
  H273     1.0000 0.17062  0.71317  0.75156  Biso   1.000  H
  H274     1.0000 0.31732  0.46966  0.05356  Biso   1.000  H
  C343     1.0000 0.31946  0.53572  0.06925  Biso   1.000  C
  C344     1.0000 0.23899  0.52584  0.09195  Biso   1.000  C
  H275     1.0000 0.18304  0.45326  0.09176  Biso   1.000  H
  C345     1.0000 0.60126  0.79382  0.78066  Biso   1.000  C
  C346     1.0000 0.20619  0.80743  0.78066  Biso   1.000  C
  H276     1.0000 0.35505  0.55616  0.06496  Biso   1.000  H
  C347     1.0000 0.29039  0.55838  0.08208  Biso   1.000  C
  H277     1.0000 0.21804  0.53927  0.10350  Biso   1.000  H
  H278     1.0000 0.61905  0.82587  0.75657  Biso   1.000  H
  H279     1.0000 0.61602  0.77267  0.76868  Biso   1.000  H
  C348     1.0000 0.60722  0.80430  0.85167  Biso   1.000  C
  H280     1.0000 0.17415  0.79318  0.75657  Biso   1.000  H
  H281     1.0000 0.22732  0.84336  0.76868  Biso   1.000  H
  C349     1.0000 0.19570  0.80291  0.85167  Biso   1.000  C
  C350     1.0000 0.31264  0.61404  0.08385  Biso   1.000  C
  C351     1.0000 0.60875  0.84721  0.87604  Biso   1.000  C
  C352     1.0000 0.60780  0.76942  0.89345  Biso   1.000  C
  C353     1.0000 0.15278  0.76154  0.87604  Biso   1.000  C
  C354     1.0000 0.23055  0.83839  0.89345  Biso   1.000  C
  C355     1.0000 0.28152  0.63534  0.08370  Biso   1.000  C
  C356     1.0000 0.36465  0.64616  0.08370  Biso   1.000  C
  H282     1.0000 0.60984  0.87198  0.84776  Biso   1.000  H
  C357     1.0000 0.60878  0.85419  0.94134  Biso   1.000  C
  C358     1.0000 0.60753  0.77606  0.95884  Biso   1.000  C
  H283     1.0000 0.60843  0.74077  0.87709  Biso   1.000  H
  H284     1.0000 0.12804  0.73786  0.84776  Biso   1.000  H
  C359     1.0000 0.14582  0.75460  0.94134  Biso   1.000  C
  C360     1.0000 0.22393  0.83149  0.95884  Biso   1.000  C
  H285     1.0000 0.25924  0.86768  0.87709  Biso   1.000  H
  C361     1.0000 0.30138  0.68734  0.08385  Biso   1.000  C
  H286     1.0000 0.24592  0.61377  0.08346  Biso   1.000  H
  C362     1.0000 0.38594  0.69861  0.08385  Biso   1.000  C
  H287     1.0000 0.38623  0.63217  0.08346  Biso   1.000  H
  H288     1.0000 0.61016  0.88378  0.95755  Biso   1.000  H
  C363     1.0000 0.60686  0.81803  0.98326  Biso   1.000  C
  H289     1.0000 0.60785  0.75189  0.98707  Biso   1.000  H
  H290     1.0000 0.11622  0.72636  0.95755  Biso   1.000  H
  C364     1.0000 0.18199  0.78888  0.98326  Biso   1.000  C
  H291     1.0000 0.24812  0.85596  0.98707  Biso   1.000  H
  C365     1.0000 0.35382  0.71848  0.08370  Biso   1.000  C
  C366     1.0000 0.26798  0.70962  0.08208  Biso   1.000  C
  C367     1.0000 0.44164  0.73202  0.08208  Biso   1.000  C
  C368     1.0000 0.60025  0.82263  0.05418  Biso   1.000  C
  C369     1.0000 0.17739  0.77764  0.05418  Biso   1.000  C
  H292     1.0000 0.36783  0.75408  0.08346  Biso   1.000  H
  C370     1.0000 0.21629  0.68055  0.06925  Biso   1.000  C
  C371     1.0000 0.28687  0.76105  0.09195  Biso   1.000  C
  C372     1.0000 0.46425  0.78371  0.06925  Biso   1.000  C
  C373     1.0000 0.47418  0.71313  0.09195  Biso   1.000  C
  N30      1.0000 0.54530  0.79227  0.06963  Biso   1.000  N
  H293     1.0000 0.61922  0.80996  0.07879  Biso   1.000  H
  H294     1.0000 0.61332  0.85837  0.06567  Biso   1.000  H
  N31      1.0000 0.20774  0.75306  0.06963  Biso   1.000  N
  H295     1.0000 0.19004  0.80928  0.07879  Biso   1.000  H
  H296     1.0000 0.14163  0.75498  0.06567  Biso   1.000  H
  C374     1.0000 0.18721  0.70280  0.06286  Biso   1.000  C
  H297     1.0000 0.20114  0.64496  0.06496  Biso   1.000  H
  H298     1.0000 0.32124  0.78198  0.10350  Biso   1.000  H
  C375     1.0000 0.25658  0.78183  0.08528  Biso   1.000  C
  C376     1.0000 0.51556  0.81278  0.06286  Biso   1.000  C
  H299     1.0000 0.44385  0.79887  0.06496  Biso   1.000  H
  H300     1.0000 0.46073  0.67878  0.10350  Biso   1.000  H
  C377     1.0000 0.52526  0.74344  0.08528  Biso   1.000  C
  H301     1.0000 0.15233  0.68266  0.05356  Biso   1.000  H
  H302     1.0000 0.27023  0.81697  0.09176  Biso   1.000  H
  H303     1.0000 0.53032  0.84766  0.05356  Biso   1.000  H
  H304     1.0000 0.54673  0.72976  0.09176  Biso   1.000  H
  C378     1.0000 0.39876  0.20621  0.21934  Biso   1.000  C
  N32      1.0000 0.45370  0.23302  0.23508  Biso   1.000  N
  H305     1.0000 0.38095  0.17413  0.24343  Biso   1.000  H
  H306     1.0000 0.38397  0.22733  0.23132  Biso   1.000  H
  C379     1.0000 0.39278  0.19569  0.14833  Biso   1.000  C
  C380     1.0000 0.48063  0.28336  0.23232  Biso   1.000  C
  C381     1.0000 0.47694  0.20636  0.24591  Biso   1.000  C
  C382     1.0000 0.39124  0.15278  0.12396  Biso   1.000  C
  C383     1.0000 0.39219  0.23057  0.10655  Biso   1.000  C
  C384     1.0000 0.53207  0.30813  0.23857  Biso   1.000  C
  H307     1.0000 0.46396  0.30214  0.22593  Biso   1.000  H
  H308     1.0000 0.45747  0.17062  0.24844  Biso   1.000  H
  C385     1.0000 0.52813  0.22978  0.25340  Biso   1.000  C
  H309     1.0000 0.39017  0.12805  0.15224  Biso   1.000  H
  C386     1.0000 0.39124  0.14585  0.05866  Biso   1.000  C
  C387     1.0000 0.39247  0.22393  0.04116  Biso   1.000  C
  H310     1.0000 0.39156  0.25923  0.12296  Biso   1.000  H
  C388     1.0000 0.55777  0.28189  0.24839  Biso   1.000  C
  H311     1.0000 0.55057  0.34395  0.23613  Biso   1.000  H
  H312     1.0000 0.54357  0.21025  0.26203  Biso   1.000  H
  H313     1.0000 0.38989  0.11625  0.04245  Biso   1.000  H
  C389     1.0000 0.39313  0.18197  0.01674  Biso   1.000  C
  H314     1.0000 0.39216  0.24814  0.01293  Biso   1.000  H
  C390     1.0000 0.61384  0.30840  0.25049  Biso   1.000  C
  C391     1.0000 0.39975  0.17737  0.94582  Biso   1.000  C
  C392     1.0000 0.64208  0.36096  0.25073  Biso   1.000  C
  C393     1.0000 0.63906  0.28113  0.25073  Biso   1.000  C
  N33      1.0000 0.45470  0.20772  0.93037  Biso   1.000  N
  H315     1.0000 0.38077  0.19004  0.92121  Biso   1.000  H
  H316     1.0000 0.38667  0.14162  0.93433  Biso   1.000  H
  H317     1.0000 0.62517  0.37985  0.25092  Biso   1.000  H
  C394     1.0000 0.69456  0.38618  0.25049  Biso   1.000  C
  H318     1.0000 0.62019  0.24535  0.25092  Biso   1.000  H
  C395     1.0000 0.69162  0.30545  0.25049  Biso   1.000  C
  C396     1.0000 0.48444  0.18721  0.93714  Biso   1.000  C
  C397     1.0000 0.47475  0.25659  0.91472  Biso   1.000  C
  C398     1.0000 0.71891  0.35794  0.25073  Biso   1.000  C
  C399     1.0000 0.72413  0.44225  0.24839  Biso   1.000  C
  C400     1.0000 0.71814  0.27589  0.24839  Biso   1.000  C
  H319     1.0000 0.46968  0.15233  0.94644  Biso   1.000  H
  C401     1.0000 0.53575  0.21628  0.93075  Biso   1.000  C
  C402     1.0000 0.52585  0.28687  0.90809  Biso   1.000  C
  H320     1.0000 0.45327  0.27024  0.90824  Biso   1.000  H
  H321     1.0000 0.75468  0.37483  0.25092  Biso   1.000  H
  C403     1.0000 0.77606  0.46793  0.23857  Biso   1.000  C
  C404     1.0000 0.70169  0.47189  0.25340  Biso   1.000  C
  C405     1.0000 0.69187  0.22393  0.23857  Biso   1.000  C
  C406     1.0000 0.77021  0.29833  0.25340  Biso   1.000  C
  H322     1.0000 0.55615  0.20112  0.93504  Biso   1.000  H
  C407     1.0000 0.55836  0.26797  0.91797  Biso   1.000  C
  H323     1.0000 0.53928  0.32125  0.89655  Biso   1.000  H
  H324     1.0000 0.79337  0.44945  0.23613  Biso   1.000  H
  C408     1.0000 0.80274  0.51940  0.23232  Biso   1.000  C
  C409     1.0000 0.72945  0.52309  0.24591  Biso   1.000  C
  H325     1.0000 0.66666  0.45643  0.26203  Biso   1.000  H
  H326     1.0000 0.65608  0.20663  0.23613  Biso   1.000  H
  C410     1.0000 0.71665  0.19728  0.23232  Biso   1.000  C
  C411     1.0000 0.79366  0.27058  0.24591  Biso   1.000  C
  H327     1.0000 0.78977  0.33332  0.26203  Biso   1.000  H
  C412     1.0000 0.61405  0.30138  0.91620  Biso   1.000  C
  N34      1.0000 0.77931  0.54628  0.23508  Biso   1.000  N
  H328     1.0000 0.83815  0.53602  0.22593  Biso   1.000  H
  H329     1.0000 0.71318  0.54255  0.24844  Biso   1.000  H
  N35      1.0000 0.76699  0.22069  0.23508  Biso   1.000  N
  H330     1.0000 0.69788  0.16183  0.22593  Biso   1.000  H
  H331     1.0000 0.82938  0.28683  0.24844  Biso   1.000  H
  C413     1.0000 0.64618  0.28151  0.91634  Biso   1.000  C
  C414     1.0000 0.63535  0.35383  0.91634  Biso   1.000  C
  C415     1.0000 0.80745  0.60126  0.21934  Biso   1.000  C
  C416     1.0000 0.79381  0.19256  0.21934  Biso   1.000  C
  H332     1.0000 0.63217  0.24592  0.91654  Biso   1.000  H
  C417     1.0000 0.69862  0.31266  0.91620  Biso   1.000  C
  C418     1.0000 0.68736  0.38596  0.91620  Biso   1.000  C
  H333     1.0000 0.61377  0.36782  0.91654  Biso   1.000  H
  H334     1.0000 0.79317  0.61905  0.24343  Biso   1.000  H
  H335     1.0000 0.84338  0.61604  0.23132  Biso   1.000  H
  C419     1.0000 0.80292  0.60721  0.14833  Biso   1.000  C
  H336     1.0000 0.82585  0.20682  0.24343  Biso   1.000  H
  H337     1.0000 0.77267  0.15663  0.23132  Biso   1.000  H
  C420     1.0000 0.80430  0.19709  0.14833  Biso   1.000  C
  C421     1.0000 0.73203  0.29041  0.91797  Biso   1.000  C
  C422     1.0000 0.71847  0.36465  0.91634  Biso   1.000  C
  C423     1.0000 0.70960  0.44161  0.91797  Biso   1.000  C
  C424     1.0000 0.76154  0.60876  0.12396  Biso   1.000  C
  C425     1.0000 0.83839  0.60782  0.10655  Biso   1.000  C
  C426     1.0000 0.84722  0.23845  0.12396  Biso   1.000  C
  C427     1.0000 0.76945  0.16161  0.10655  Biso   1.000  C
  C428     1.0000 0.78371  0.31944  0.93075  Biso   1.000  C
  C429     1.0000 0.71314  0.23898  0.90809  Biso   1.000  C
  H338     1.0000 0.75408  0.38622  0.91654  Biso   1.000  H
  C430     1.0000 0.68054  0.46427  0.93075  Biso   1.000  C
  C431     1.0000 0.76106  0.47419  0.90809  Biso   1.000  C
  H339     1.0000 0.73789  0.60985  0.15224  Biso   1.000  H
  C432     1.0000 0.75461  0.60876  0.05866  Biso   1.000  C
  C433     1.0000 0.83150  0.60755  0.04116  Biso   1.000  C
  H340     1.0000 0.86766  0.60842  0.12296  Biso   1.000  H
  H341     1.0000 0.87195  0.26213  0.15224  Biso   1.000  H
  C434     1.0000 0.85418  0.24539  0.05866  Biso   1.000  C
  C435     1.0000 0.77606  0.16851  0.04116  Biso   1.000  C
  H342     1.0000 0.74078  0.13235  0.12296  Biso   1.000  H
  C436     1.0000 0.81280  0.29723  0.93714  Biso   1.000  C
  H343     1.0000 0.79886  0.35504  0.93504  Biso   1.000  H
  H344     1.0000 0.67878  0.21805  0.89655  Biso   1.000  H
  C437     1.0000 0.74342  0.21817  0.91472  Biso   1.000  C
  C438     1.0000 0.70277  0.51559  0.93714  Biso   1.000  C
  H345     1.0000 0.64498  0.44383  0.93504  Biso   1.000  H
  H346     1.0000 0.78196  0.46073  0.89655  Biso   1.000  H
  C439     1.0000 0.78184  0.52528  0.91472  Biso   1.000  C
  H347     1.0000 0.72638  0.61015  0.04245  Biso   1.000  H
  C440     1.0000 0.78887  0.60687  0.01674  Biso   1.000  C
  H348     1.0000 0.85598  0.60785  0.01293  Biso   1.000  H
  H349     1.0000 0.88378  0.27363  0.04245  Biso   1.000  H
  C441     1.0000 0.81802  0.21115  0.01674  Biso   1.000  C
  H350     1.0000 0.75188  0.14404  0.01293  Biso   1.000  H
  N36      1.0000 0.79228  0.24697  0.93037  Biso   1.000  N
  H351     1.0000 0.84767  0.31733  0.94644  Biso   1.000  H
  H352     1.0000 0.72977  0.18302  0.90824  Biso   1.000  H
  N37      1.0000 0.75303  0.54530  0.93037  Biso   1.000  N
  H353     1.0000 0.68268  0.53033  0.94644  Biso   1.000  H
  H354     1.0000 0.81696  0.54673  0.90824  Biso   1.000  H
  C442     1.0000 0.77762  0.60024  0.94582  Biso   1.000  C
  C443     1.0000 0.82263  0.22239  0.94582  Biso   1.000  C
  H355     1.0000 0.80926  0.61924  0.92121  Biso   1.000  H
  H356     1.0000 0.75497  0.61332  0.93433  Biso   1.000  H
  H357     1.0000 0.80998  0.19075  0.92121  Biso   1.000  H
  H358     1.0000 0.85839  0.24505  0.93433  Biso   1.000  H
