data_image0
_cell_length_a       29.926
_cell_length_b       29.926
_cell_length_c       22.38
_cell_angle_alpha    90
_cell_angle_beta     90
_cell_angle_gamma    90

_symmetry_space_group_name_H-M    "P 1"
_symmetry_int_tables_number       1

loop_
  _symmetry_equiv_pos_as_xyz
  'x, y, z'

loop_
  _atom_site_label
  _atom_site_occupancy
  _atom_site_fract_x
  _atom_site_fract_y
  _atom_site_fract_z
  _atom_site_thermal_displace_type
  _atom_site_B_iso_or_equiv
  _atom_site_type_symbol
  C1       1.0000 0.50849  0.45389  0.57601  Biso   1.000  C
  C2       1.0000 0.49649  0.41720  0.53820  Biso   1.000  C
  C3       1.0000 0.48490  0.46110  0.62672  Biso   1.000  C
  H1       1.0000 0.53221  0.47260  0.56582  Biso   1.000  H
  C4       1.0000 0.52189  0.41101  0.48271  Biso   1.000  C
  C5       1.0000 0.46171  0.39090  0.54960  Biso   1.000  C
  C6       1.0000 0.45081  0.43410  0.64321  Biso   1.000  C
  H2       1.0000 0.49241  0.48520  0.65089  Biso   1.000  H
  N1       1.0000 0.55611  0.43290  0.46680  Biso   1.000  N
  H3       1.0000 0.51190  0.38889  0.45670  Biso   1.000  H
  H4       1.0000 0.45262  0.36851  0.52350  Biso   1.000  H
  C7       1.0000 0.43978  0.39898  0.60349  Biso   1.000  C
  C8       1.0000 0.42271  0.44149  0.69960  Biso   1.000  C
  C9       1.0000 0.58180  0.42522  0.41260  Biso   1.000  C
  H5       1.0000 0.41629  0.38020  0.61399  Biso   1.000  H
  C10      1.0000 0.44329  0.43367  0.75130  Biso   1.000  C
  C11      1.0000 0.38141  0.45953  0.69209  Biso   1.000  C
  C12      1.0000 0.62731  0.41389  0.42091  Biso   1.000  C
  H6       1.0000 0.58040  0.45201  0.38829  Biso   1.000  H
  H7       1.0000 0.56760  0.40139  0.39021  Biso   1.000  H
  C13      1.0000 0.48830  0.41409  0.76381  Biso   1.000  C
  N2       1.0000 0.42662  0.44042  0.80929  Biso   1.000  N
  C14      1.0000 0.35979  0.46872  0.63668  Biso   1.000  C
  N3       1.0000 0.35220  0.47126  0.73740  Biso   1.000  N
  N4       1.0000 0.63460  0.37479  0.44960  Biso   1.000  N
  H8       1.0000 0.64162  0.43771  0.44330  Biso   1.000  H
  H9       1.0000 0.64162  0.41248  0.38199  Biso   1.000  H
  C15      1.0000 0.49409  0.41111  0.82279  Biso   1.000  C
  H10      1.0000 0.50899  0.40540  0.73499  Biso   1.000  H
  C16      1.0000 0.45689  0.42759  0.85250  Biso   1.000  C
  H11      1.0000 0.37132  0.46311  0.59879  Biso   1.000  H
  C17      1.0000 0.32009  0.48700  0.64902  Biso   1.000  C
  C18      1.0000 0.31511  0.49001  0.71019  Biso   1.000  C
  H12      1.0000 0.35631  0.46759  0.77511  Biso   1.000  H
  C19      1.0000 0.64051  0.33920  0.40920  Biso   1.000  C
  C20      1.0000 0.67420  0.37051  0.48731  Biso   1.000  C
  H13      1.0000 0.51941  0.39959  0.84142  Biso   1.000  H
  C21      1.0000 0.45131  0.42999  0.91269  Biso   1.000  C
  H14      1.0000 0.29920  0.49619  0.62091  Biso   1.000  H
  C22      1.0000 0.27899  0.50825  0.73919  Biso   1.000  C
  C23      1.0000 0.62401  0.29499  0.42198  Biso   1.000  C
  H15      1.0000 0.62731  0.34839  0.37158  Biso   1.000  H
  H16      1.0000 0.67239  0.33650  0.40228  Biso   1.000  H
  H17      1.0000 0.68359  0.33950  0.48870  Biso   1.000  H
  H18      1.0000 0.69839  0.38809  0.47082  Biso   1.000  H
  C24      1.0000 0.66280  0.38759  0.55299  Biso   1.000  C
  C25      1.0000 0.41479  0.44600  0.94160  Biso   1.000  C
  C26      1.0000 0.48921  0.41379  0.94920  Biso   1.000  C
  C27      1.0000 0.24410  0.53221  0.70259  Biso   1.000  C
  C28      1.0000 0.27331  0.51019  0.79969  Biso   1.000  C
  N5       1.0000 0.57382  0.29239  0.42020  Biso   1.000  N
  H19      1.0000 0.63630  0.27431  0.39298  Biso   1.000  H
  H20      1.0000 0.63430  0.28601  0.46122  Biso   1.000  H
  H21      1.0000 0.64238  0.41278  0.55201  Biso   1.000  H
  H22      1.0000 0.68960  0.39601  0.57449  Biso   1.000  H
  N6       1.0000 0.64121  0.34739  0.58029  Biso   1.000  N
  N7       1.0000 0.37660  0.46394  0.91792  Biso   1.000  N
  C29      1.0000 0.40951  0.44911  0.00179  Biso   1.000  C
  C30      1.0000 0.52249  0.44329  0.97431  Biso   1.000  C
  C31      1.0000 0.49358  0.37001  0.96461  Biso   1.000  C
  C32      1.0000 0.25449  0.57001  0.67422  Biso   1.000  C
  C33      1.0000 0.20200  0.51340  0.69071  Biso   1.000  C
  C34      1.0000 0.23592  0.53131  0.83369  Biso   1.000  C
  N8       1.0000 0.30181  0.49492  0.84178  Biso   1.000  N
  C35      1.0000 0.55320  0.28741  0.47082  Biso   1.000  C
  C36      1.0000 0.60122  0.35421  0.60210  Biso   1.000  C
  C37      1.0000 0.34980  0.47761  0.95822  Biso   1.000  C
  H23      1.0000 0.37132  0.46582  0.88021  Biso   1.000  H
  C38      1.0000 0.36891  0.46769  0.01801  Biso   1.000  C
  H24      1.0000 0.43090  0.43978  0.02918  Biso   1.000  H
  H25      1.0000 0.52012  0.47390  0.96801  Biso   1.000  H
  C39      1.0000 0.55651  0.42729  0.00630  Biso   1.000  C
  H26      1.0000 0.47250  0.34970  0.95071  Biso   1.000  H
  C40      1.0000 0.52951  0.35411  0.00121  Biso   1.000  C
  C41      1.0000 0.22171  0.59460  0.64272  Biso   1.000  C
  H27      1.0000 0.28380  0.58040  0.67511  Biso   1.000  H
  C42      1.0000 0.17159  0.53599  0.65782  Biso   1.000  C
  H28      1.0000 0.19501  0.48520  0.70550  Biso   1.000  H
  H29      1.0000 0.21099  0.54531  0.81729  Biso   1.000  H
  C43      1.0000 0.24440  0.52650  0.88968  Biso   1.000  C
  C44      1.0000 0.28510  0.50612  0.89750  Biso   1.000  C
  C45      1.0000 0.50541  0.28380  0.47592  Biso   1.000  C
  H30      1.0000 0.57021  0.28611  0.50550  Biso   1.000  H
  C46      1.0000 0.57629  0.32099  0.63539  Biso   1.000  C
  H31      1.0000 0.58788  0.38201  0.59589  Biso   1.000  H
  C47      1.0000 0.30719  0.49729  0.95380  Biso   1.000  C
  H32      1.0000 0.35701  0.47260  0.05581  Biso   1.000  H
  H33      1.0000 0.57799  0.44710  0.02020  Biso   1.000  H
  C48      1.0000 0.56098  0.38291  0.01948  Biso   1.000  C
  H34      1.0000 0.53091  0.32410  0.01220  Biso   1.000  H
  C49      1.0000 0.17901  0.57629  0.63539  Biso   1.000  C
  H35      1.0000 0.22840  0.62260  0.62708  Biso   1.000  H
  H36      1.0000 0.14409  0.52259  0.65058  Biso   1.000  H
  H37      1.0000 0.22559  0.53559  0.92060  Biso   1.000  H
  C50      1.0000 0.48530  0.27241  0.52601  Biso   1.000  C
  C51      1.0000 0.47781  0.29349  0.42480  Biso   1.000  C
  C52      1.0000 0.59460  0.27829  0.64272  Biso   1.000  C
  C53      1.0000 0.53599  0.32841  0.65782  Biso   1.000  C
  C54      1.0000 0.28510  0.51571  0.00970  Biso   1.000  C
  C55      1.0000 0.60001  0.36670  0.05518  Biso   1.000  C
  C56      1.0000 0.14579  0.60122  0.60210  Biso   1.000  C
  C57      1.0000 0.44069  0.26709  0.53199  Biso   1.000  C
  H38      1.0000 0.50311  0.26759  0.55952  Biso   1.000  H
  C58      1.0000 0.43290  0.28961  0.42958  Biso   1.000  C
  H39      1.0000 0.49071  0.30221  0.38878  Biso   1.000  H
  C59      1.0000 0.57001  0.24551  0.67422  Biso   1.000  C
  H40      1.0000 0.62260  0.27160  0.62708  Biso   1.000  H
  H41      1.0000 0.52259  0.35591  0.65058  Biso   1.000  H
  C60      1.0000 0.51340  0.29800  0.69071  Biso   1.000  C
  C61      1.0000 0.28921  0.55771  0.02748  Biso   1.000  C
  C62      1.0000 0.25981  0.48700  0.04808  Biso   1.000  C
  H42      1.0000 0.59901  0.33730  0.06899  Biso   1.000  H
  N9       1.0000 0.63159  0.38779  0.06720  Biso   1.000  N
  N10      1.0000 0.15261  0.64121  0.58029  Biso   1.000  N
  H43      1.0000 0.11799  0.58788  0.59589  Biso   1.000  H
  C63      1.0000 0.41389  0.27581  0.48239  Biso   1.000  C
  H44      1.0000 0.42829  0.25790  0.56810  Biso   1.000  H
  H45      1.0000 0.41479  0.29640  0.39710  Biso   1.000  H
  C64      1.0000 0.53221  0.25590  0.70259  Biso   1.000  C
  H46      1.0000 0.58040  0.21620  0.67511  Biso   1.000  H
  H47      1.0000 0.48520  0.30499  0.70550  Biso   1.000  H
  H48      1.0000 0.30579  0.57739  0.00438  Biso   1.000  H
  C65      1.0000 0.26910  0.57321  0.08038  Biso   1.000  C
  C66      1.0000 0.24089  0.50231  0.10089  Biso   1.000  C
  H49      1.0000 0.25590  0.45729  0.03731  Biso   1.000  H
  C67      1.0000 0.66872  0.37132  0.10822  Biso   1.000  C
  C68      1.0000 0.11241  0.66280  0.55299  Biso   1.000  C
  C69      1.0000 0.36159  0.26649  0.48691  Biso   1.000  C
  C70      1.0000 0.50825  0.22101  0.73919  Biso   1.000  C
  H50      1.0000 0.27220  0.60299  0.09169  Biso   1.000  H
  C71      1.0000 0.24531  0.54461  0.11479  Biso   1.000  C
  H51      1.0000 0.22539  0.48299  0.12592  Biso   1.000  H
  H52      1.0000 0.66741  0.33890  0.11019  Biso   1.000  H
  H53      1.0000 0.69729  0.37930  0.09080  Biso   1.000  H
  C72      1.0000 0.66631  0.39020  0.17212  Biso   1.000  C
  C73      1.0000 0.12949  0.67420  0.48731  Biso   1.000  C
  H54      1.0000 0.08722  0.64238  0.55201  Biso   1.000  H
  H55      1.0000 0.10399  0.68960  0.57449  Biso   1.000  H
  C74      1.0000 0.34799  0.22409  0.48691  Biso   1.000  C
  C75      1.0000 0.33730  0.30609  0.48722  Biso   1.000  C
  C76      1.0000 0.49001  0.18489  0.71019  Biso   1.000  C
  C77      1.0000 0.51019  0.22669  0.79969  Biso   1.000  C
  C78      1.0000 0.22379  0.56001  0.17140  Biso   1.000  C
  H56      1.0000 0.65949  0.42181  0.17069  Biso   1.000  H
  H57      1.0000 0.69501  0.38649  0.19169  Biso   1.000  H
  N11      1.0000 0.63410  0.36821  0.20362  Biso   1.000  N
  N12      1.0000 0.12521  0.63460  0.44960  Biso   1.000  N
  H58      1.0000 0.16050  0.68359  0.48870  Biso   1.000  H
  H59      1.0000 0.11191  0.69839  0.47082  Biso   1.000  H
  N13      1.0000 0.30609  0.20942  0.48838  Biso   1.000  N
  C79      1.0000 0.37890  0.18519  0.48579  Biso   1.000  C
  C80      1.0000 0.35050  0.34990  0.48771  Biso   1.000  C
  N14      1.0000 0.29058  0.30609  0.48838  Biso   1.000  N
  C81      1.0000 0.48700  0.17991  0.64902  Biso   1.000  C
  N15      1.0000 0.47126  0.14780  0.73740  Biso   1.000  N
  C82      1.0000 0.53131  0.26408  0.83369  Biso   1.000  C
  N16      1.0000 0.49492  0.19819  0.84178  Biso   1.000  N
  H60      1.0000 0.20831  0.54010  0.19549  Biso   1.000  H
  N17      1.0000 0.22699  0.59981  0.18570  Biso   1.000  N
  C83      1.0000 0.64970  0.32610  0.23119  Biso   1.000  C
  C84      1.0000 0.62010  0.39949  0.24441  Biso   1.000  C
  C85      1.0000 0.16080  0.64051  0.40920  Biso   1.000  C
  C86      1.0000 0.08611  0.62731  0.42091  Biso   1.000  C
  C87      1.0000 0.30609  0.16270  0.48722  Biso   1.000  C
  H61      1.0000 0.28270  0.22599  0.48990  Biso   1.000  H
  C88      1.0000 0.34990  0.14950  0.48771  Biso   1.000  C
  H62      1.0000 0.40991  0.18499  0.48432  Biso   1.000  H
  C89      1.0000 0.31481  0.37890  0.48579  Biso   1.000  C
  H63      1.0000 0.38020  0.35899  0.48910  Biso   1.000  H
  C90      1.0000 0.27591  0.34799  0.48691  Biso   1.000  C
  H64      1.0000 0.27401  0.28270  0.48990  Biso   1.000  H
  C91      1.0000 0.46872  0.14021  0.63668  Biso   1.000  C
  H65      1.0000 0.49619  0.20080  0.62091  Biso   1.000  H
  C92      1.0000 0.45953  0.11859  0.69209  Biso   1.000  C
  H66      1.0000 0.46759  0.14369  0.77511  Biso   1.000  H
  H67      1.0000 0.54531  0.28901  0.81729  Biso   1.000  H
  C93      1.0000 0.52650  0.25560  0.88968  Biso   1.000  C
  C94      1.0000 0.50612  0.21490  0.89750  Biso   1.000  C
  C95      1.0000 0.20691  0.61488  0.24290  Biso   1.000  C
  C96      1.0000 0.61488  0.29309  0.24290  Biso   1.000  C
  H68      1.0000 0.66441  0.33319  0.26872  Biso   1.000  H
  H69      1.0000 0.67189  0.31270  0.20509  Biso   1.000  H
  H70      1.0000 0.61381  0.38371  0.28128  Biso   1.000  H
  H71      1.0000 0.64529  0.41890  0.25228  Biso   1.000  H
  C97      1.0000 0.58020  0.42929  0.23141  Biso   1.000  C
  C98      1.0000 0.20501  0.62401  0.42198  Biso   1.000  C
  H72      1.0000 0.15161  0.62731  0.37158  Biso   1.000  H
  H73      1.0000 0.16350  0.67239  0.40228  Biso   1.000  H
  C99      1.0000 0.07478  0.58180  0.41260  Biso   1.000  C
  H74      1.0000 0.06229  0.64162  0.44330  Biso   1.000  H
  H75      1.0000 0.08752  0.64162  0.38199  Biso   1.000  H
  C100     1.0000 0.26649  0.13841  0.48691  Biso   1.000  C
  H76      1.0000 0.35899  0.11980  0.48910  Biso   1.000  H
  H77      1.0000 0.31501  0.40991  0.48432  Biso   1.000  H
  C101     1.0000 0.23351  0.36159  0.48691  Biso   1.000  C
  H78      1.0000 0.46311  0.12868  0.59879  Biso   1.000  H
  C102     1.0000 0.44149  0.07729  0.69960  Biso   1.000  C
  H79      1.0000 0.53559  0.27441  0.92060  Biso   1.000  H
  C103     1.0000 0.49729  0.19281  0.95380  Biso   1.000  C
  H80      1.0000 0.23010  0.62641  0.26899  Biso   1.000  H
  H81      1.0000 0.19271  0.58989  0.26269  Biso   1.000  H
  C104     1.0000 0.17390  0.64970  0.23119  Biso   1.000  C
  N18      1.0000 0.59981  0.27301  0.18570  Biso   1.000  N
  H82      1.0000 0.62641  0.26990  0.26899  Biso   1.000  H
  H83      1.0000 0.58989  0.30729  0.26269  Biso   1.000  H
  H84      1.0000 0.58391  0.44349  0.19281  Biso   1.000  H
  H85      1.0000 0.57809  0.45252  0.26162  Biso   1.000  H
  N19      1.0000 0.54100  0.40370  0.23150  Biso   1.000  N
  N20      1.0000 0.20761  0.57382  0.42020  Biso   1.000  N
  H86      1.0000 0.22569  0.63630  0.39298  Biso   1.000  H
  H87      1.0000 0.21399  0.63430  0.46122  Biso   1.000  H
  H88      1.0000 0.04799  0.58040  0.38829  Biso   1.000  H
  H89      1.0000 0.09861  0.56760  0.39021  Biso   1.000  H
  N21      1.0000 0.06710  0.55611  0.46680  Biso   1.000  N
  C105     1.0000 0.27581  0.08611  0.48239  Biso   1.000  C
  C106     1.0000 0.22409  0.15201  0.48691  Biso   1.000  C
  C107     1.0000 0.22419  0.41389  0.48239  Biso   1.000  C
  C108     1.0000 0.19391  0.33730  0.48722  Biso   1.000  C
  C109     1.0000 0.43410  0.04919  0.64321  Biso   1.000  C
  C110     1.0000 0.43367  0.05671  0.75130  Biso   1.000  C
  C111     1.0000 0.47761  0.15020  0.95822  Biso   1.000  C
  C112     1.0000 0.51571  0.21490  0.00970  Biso   1.000  C
  N22      1.0000 0.13179  0.63410  0.20362  Biso   1.000  N
  H90      1.0000 0.16681  0.66441  0.26872  Biso   1.000  H
  H91      1.0000 0.18730  0.67189  0.20509  Biso   1.000  H
  C113     1.0000 0.56001  0.27621  0.17140  Biso   1.000  C
  C114     1.0000 0.52022  0.39928  0.18570  Biso   1.000  C
  C115     1.0000 0.21259  0.55320  0.47082  Biso   1.000  C
  C116     1.0000 0.08899  0.52189  0.48271  Biso   1.000  C
  C117     1.0000 0.26709  0.05931  0.53199  Biso   1.000  C
  C118     1.0000 0.28961  0.06710  0.42958  Biso   1.000  C
  N23      1.0000 0.20942  0.19391  0.48838  Biso   1.000  N
  C119     1.0000 0.18519  0.12110  0.48579  Biso   1.000  C
  C120     1.0000 0.23291  0.44069  0.53199  Biso   1.000  C
  C121     1.0000 0.21039  0.43290  0.42958  Biso   1.000  C
  C122     1.0000 0.15010  0.35050  0.48771  Biso   1.000  C
  N24      1.0000 0.19391  0.29058  0.48838  Biso   1.000  N
  C123     1.0000 0.39898  0.06022  0.60349  Biso   1.000  C
  C124     1.0000 0.46110  0.01510  0.62672  Biso   1.000  C
  C125     1.0000 0.41409  0.01170  0.76381  Biso   1.000  C
  N25      1.0000 0.44042  0.07338  0.80929  Biso   1.000  N
  N26      1.0000 0.46394  0.12340  0.91792  Biso   1.000  N
  C126     1.0000 0.46769  0.13109  0.01801  Biso   1.000  C
  C127     1.0000 0.55771  0.21079  0.02748  Biso   1.000  C
  C128     1.0000 0.48700  0.24019  0.04808  Biso   1.000  C
  C129     1.0000 0.10980  0.66631  0.17212  Biso   1.000  C
  C130     1.0000 0.10051  0.62010  0.24441  Biso   1.000  C
  C131     1.0000 0.54461  0.25469  0.11479  Biso   1.000  C
  H92      1.0000 0.54010  0.29169  0.19549  Biso   1.000  H
  H93      1.0000 0.53161  0.41359  0.15210  Biso   1.000  H
  C132     1.0000 0.47581  0.37188  0.17681  Biso   1.000  C
  C133     1.0000 0.21620  0.50541  0.47592  Biso   1.000  C
  H94      1.0000 0.21389  0.57021  0.50550  Biso   1.000  H
  C134     1.0000 0.08280  0.49649  0.53820  Biso   1.000  C
  H95      1.0000 0.11111  0.51190  0.45670  Biso   1.000  H
  C135     1.0000 0.27241  0.01470  0.52601  Biso   1.000  C
  H96      1.0000 0.25790  0.07171  0.56810  Biso   1.000  H
  H97      1.0000 0.29640  0.08521  0.39710  Biso   1.000  H
  C136     1.0000 0.29349  0.02219  0.42480  Biso   1.000  C
  C137     1.0000 0.16270  0.19391  0.48722  Biso   1.000  C
  H98      1.0000 0.22599  0.21730  0.48990  Biso   1.000  H
  C138     1.0000 0.14950  0.15010  0.48771  Biso   1.000  C
  H99      1.0000 0.18499  0.09009  0.48432  Biso   1.000  H
  C139     1.0000 0.22759  0.48530  0.52601  Biso   1.000  C
  H100     1.0000 0.24210  0.42829  0.56810  Biso   1.000  H
  H101     1.0000 0.20360  0.41479  0.39710  Biso   1.000  H
  C140     1.0000 0.20651  0.47781  0.42480  Biso   1.000  C
  C141     1.0000 0.12110  0.31481  0.48579  Biso   1.000  C
  H102     1.0000 0.14101  0.38020  0.48910  Biso   1.000  H
  C142     1.0000 0.15201  0.27591  0.48691  Biso   1.000  C
  H103     1.0000 0.21730  0.27401  0.48990  Biso   1.000  H
  C143     1.0000 0.39090  0.03829  0.54960  Biso   1.000  C
  H104     1.0000 0.38020  0.08371  0.61399  Biso   1.000  H
  C144     1.0000 0.45389  0.99151  0.57601  Biso   1.000  C
  H105     1.0000 0.48520  0.00759  0.65089  Biso   1.000  H
  C145     1.0000 0.41111  0.00591  0.82279  Biso   1.000  C
  H106     1.0000 0.40540  0.99101  0.73499  Biso   1.000  H
  C146     1.0000 0.42759  0.04311  0.85250  Biso   1.000  C
  C147     1.0000 0.44600  0.08521  0.94160  Biso   1.000  C
  H107     1.0000 0.46582  0.12868  0.88021  Biso   1.000  H
  C148     1.0000 0.44911  0.09049  0.00179  Biso   1.000  C
  H108     1.0000 0.47260  0.14299  0.05581  Biso   1.000  H
  H109     1.0000 0.57739  0.19421  0.00438  Biso   1.000  H
  C149     1.0000 0.57321  0.23090  0.08038  Biso   1.000  C
  C150     1.0000 0.50231  0.25911  0.10089  Biso   1.000  C
  H110     1.0000 0.45729  0.24410  0.03731  Biso   1.000  H
  C151     1.0000 0.12868  0.66872  0.10822  Biso   1.000  C
  H111     1.0000 0.07819  0.65949  0.17069  Biso   1.000  H
  H112     1.0000 0.11351  0.69501  0.19169  Biso   1.000  H
  H113     1.0000 0.11629  0.61381  0.28128  Biso   1.000  H
  H114     1.0000 0.08110  0.64529  0.25228  Biso   1.000  H
  C152     1.0000 0.07071  0.58020  0.23141  Biso   1.000  C
  C153     1.0000 0.45409  0.37162  0.12560  Biso   1.000  C
  C154     1.0000 0.46060  0.34980  0.22882  Biso   1.000  C
  C155     1.0000 0.04611  0.50849  0.57601  Biso   1.000  C
  C156     1.0000 0.10910  0.46171  0.54960  Biso   1.000  C
  C157     1.0000 0.28380  0.99459  0.47592  Biso   1.000  C
  H115     1.0000 0.26759  0.99689  0.55952  Biso   1.000  H
  H116     1.0000 0.30221  0.00929  0.38878  Biso   1.000  H
  C158     1.0000 0.13841  0.23351  0.48691  Biso   1.000  C
  H117     1.0000 0.11980  0.14101  0.48910  Biso   1.000  H
  H118     1.0000 0.23241  0.50311  0.55952  Biso   1.000  H
  H119     1.0000 0.19779  0.49071  0.38878  Biso   1.000  H
  H120     1.0000 0.09009  0.31501  0.48432  Biso   1.000  H
  C159     1.0000 0.41720  0.00351  0.53820  Biso   1.000  C
  H121     1.0000 0.36851  0.04738  0.52350  Biso   1.000  H
  H122     1.0000 0.47260  0.96779  0.56582  Biso   1.000  H
  H123     1.0000 0.39959  0.98059  0.84142  Biso   1.000  H
  C160     1.0000 0.42999  0.04869  0.91269  Biso   1.000  C
  H124     1.0000 0.43978  0.06910  0.02918  Biso   1.000  H
  H125     1.0000 0.60299  0.22780  0.09169  Biso   1.000  H
  H126     1.0000 0.48299  0.27461  0.12592  Biso   1.000  H
  N27      1.0000 0.11221  0.63159  0.06720  Biso   1.000  N
  H127     1.0000 0.16110  0.66741  0.11019  Biso   1.000  H
  H128     1.0000 0.12070  0.69729  0.09080  Biso   1.000  H
  H129     1.0000 0.05651  0.58391  0.19281  Biso   1.000  H
  H130     1.0000 0.04748  0.57809  0.26162  Biso   1.000  H
  N28      1.0000 0.09630  0.54100  0.23150  Biso   1.000  N
  H131     1.0000 0.46521  0.38609  0.09191  Biso   1.000  H
  C161     1.0000 0.41228  0.34769  0.12471  Biso   1.000  C
  C162     1.0000 0.42131  0.32480  0.22811  Biso   1.000  C
  H132     1.0000 0.47711  0.35190  0.26390  Biso   1.000  H
  C163     1.0000 0.03890  0.48490  0.62672  Biso   1.000  C
  H133     1.0000 0.02740  0.53221  0.56582  Biso   1.000  H
  H134     1.0000 0.13149  0.45262  0.52350  Biso   1.000  H
  C164     1.0000 0.10102  0.43978  0.60349  Biso   1.000  C
  C165     1.0000 0.28741  0.94680  0.47082  Biso   1.000  C
  C166     1.0000 0.08611  0.22419  0.48239  Biso   1.000  C
  C167     1.0000 0.41101  0.97811  0.48271  Biso   1.000  C
  C168     1.0000 0.41379  0.01079  0.94920  Biso   1.000  C
  C169     1.0000 0.13330  0.60001  0.05518  Biso   1.000  C
  C170     1.0000 0.10072  0.52022  0.18570  Biso   1.000  C
  H135     1.0000 0.39591  0.34749  0.08941  Biso   1.000  H
  C171     1.0000 0.39561  0.32560  0.17252  Biso   1.000  C
  H136     1.0000 0.41192  0.30849  0.26122  Biso   1.000  H
  C172     1.0000 0.06590  0.45081  0.64321  Biso   1.000  C
  H137     1.0000 0.01480  0.49241  0.65089  Biso   1.000  H
  H138     1.0000 0.11980  0.41629  0.61399  Biso   1.000  H
  H139     1.0000 0.28611  0.92979  0.50550  Biso   1.000  H
  N29      1.0000 0.29239  0.92618  0.42020  Biso   1.000  N
  C173     1.0000 0.05931  0.23291  0.53199  Biso   1.000  C
  C174     1.0000 0.06710  0.21039  0.42958  Biso   1.000  C
  N30      1.0000 0.43290  0.94389  0.46680  Biso   1.000  N
  H140     1.0000 0.38889  0.98810  0.45670  Biso   1.000  H
  C175     1.0000 0.37001  0.00642  0.96461  Biso   1.000  C
  C176     1.0000 0.44329  0.97751  0.97431  Biso   1.000  C
  C177     1.0000 0.11709  0.56098  0.01948  Biso   1.000  C
  H141     1.0000 0.16270  0.59901  0.06899  Biso   1.000  H
  H142     1.0000 0.08641  0.53161  0.15210  Biso   1.000  H
  C178     1.0000 0.12812  0.47581  0.17681  Biso   1.000  C
  C179     1.0000 0.35060  0.30291  0.17301  Biso   1.000  C
  C180     1.0000 0.05851  0.42271  0.69960  Biso   1.000  C
  C181     1.0000 0.29499  0.87599  0.42198  Biso   1.000  C
  C182     1.0000 0.01470  0.22759  0.52601  Biso   1.000  C
  H143     1.0000 0.07171  0.24210  0.56810  Biso   1.000  H
  H144     1.0000 0.08521  0.20360  0.39710  Biso   1.000  H
  C183     1.0000 0.02219  0.20651  0.42480  Biso   1.000  C
  C184     1.0000 0.42522  0.91820  0.41260  Biso   1.000  C
  H145     1.0000 0.34970  0.02750  0.95071  Biso   1.000  H
  C185     1.0000 0.35411  0.97049  0.00121  Biso   1.000  C
  H146     1.0000 0.47390  0.97988  0.96801  Biso   1.000  H
  C186     1.0000 0.42729  0.94349  0.00630  Biso   1.000  C
  C187     1.0000 0.07271  0.55651  0.00630  Biso   1.000  C
  C188     1.0000 0.14589  0.52951  0.00121  Biso   1.000  C
  C189     1.0000 0.12838  0.45409  0.12560  Biso   1.000  C
  C190     1.0000 0.15020  0.46060  0.22882  Biso   1.000  C
  C191     1.0000 0.31421  0.32961  0.17042  Biso   1.000  C
  C192     1.0000 0.35391  0.25620  0.17221  Biso   1.000  C
  C193     1.0000 0.06633  0.44329  0.75130  Biso   1.000  C
  C194     1.0000 0.04047  0.38141  0.69209  Biso   1.000  C
  H147     1.0000 0.27431  0.86370  0.39298  Biso   1.000  H
  H148     1.0000 0.28601  0.86570  0.46122  Biso   1.000  H
  C195     1.0000 0.33920  0.85949  0.40920  Biso   1.000  C
  C196     1.0000 0.99459  0.21620  0.47592  Biso   1.000  C
  H149     1.0000 0.99689  0.23241  0.55952  Biso   1.000  H
  H150     1.0000 0.00929  0.19779  0.38878  Biso   1.000  H
  C197     1.0000 0.41389  0.87269  0.42091  Biso   1.000  C
  H151     1.0000 0.45201  0.91960  0.38829  Biso   1.000  H
  H152     1.0000 0.40139  0.93240  0.39021  Biso   1.000  H
  C198     1.0000 0.38291  0.93902  0.01948  Biso   1.000  C
  H153     1.0000 0.32410  0.96909  0.01220  Biso   1.000  H
  H154     1.0000 0.44710  0.92201  0.02020  Biso   1.000  H
  C199     1.0000 0.05671  0.52249  0.97431  Biso   1.000  C
  H155     1.0000 0.05290  0.57799  0.02020  Biso   1.000  H
  C200     1.0000 0.12999  0.49358  0.96461  Biso   1.000  C
  H156     1.0000 0.17590  0.53091  0.01220  Biso   1.000  H
  H157     1.0000 0.11391  0.46521  0.09191  Biso   1.000  H
  C201     1.0000 0.15231  0.41228  0.12471  Biso   1.000  C
  C202     1.0000 0.17520  0.42131  0.22811  Biso   1.000  C
  H158     1.0000 0.14810  0.47711  0.26390  Biso   1.000  H
  C203     1.0000 0.31260  0.37629  0.17109  Biso   1.000  C
  N31      1.0000 0.27140  0.31371  0.16939  Biso   1.000  N
  C204     1.0000 0.39130  0.22900  0.16890  Biso   1.000  C
  N32      1.0000 0.31371  0.22860  0.16939  Biso   1.000  N
  C205     1.0000 0.08591  0.48830  0.76381  Biso   1.000  C
  N33      1.0000 0.05958  0.42662  0.80929  Biso   1.000  N
  C206     1.0000 0.03128  0.35979  0.63668  Biso   1.000  C
  N34      1.0000 0.02874  0.35220  0.73740  Biso   1.000  N
  H159     1.0000 0.34839  0.87269  0.37158  Biso   1.000  H
  H160     1.0000 0.33650  0.82761  0.40228  Biso   1.000  H
  N35      1.0000 0.37479  0.86540  0.44960  Biso   1.000  N
  C207     1.0000 0.94680  0.21259  0.47082  Biso   1.000  C
  H161     1.0000 0.43771  0.85838  0.44330  Biso   1.000  H
  H162     1.0000 0.41248  0.85838  0.38199  Biso   1.000  H
  C208     1.0000 0.36670  0.89999  0.05518  Biso   1.000  C
  C209     1.0000 0.08621  0.48921  0.94920  Biso   1.000  C
  H163     1.0000 0.02610  0.52012  0.96801  Biso   1.000  H
  H164     1.0000 0.15030  0.47250  0.95071  Biso   1.000  H
  H165     1.0000 0.15251  0.39591  0.08941  Biso   1.000  H
  C210     1.0000 0.17440  0.39561  0.17252  Biso   1.000  C
  H166     1.0000 0.19151  0.41192  0.26122  Biso   1.000  H
  H167     1.0000 0.33770  0.39461  0.17292  Biso   1.000  H
  C211     1.0000 0.27100  0.39130  0.16890  Biso   1.000  C
  C212     1.0000 0.24380  0.35391  0.17221  Biso   1.000  C
  H168     1.0000 0.26271  0.28641  0.16752  Biso   1.000  H
  C213     1.0000 0.37629  0.18740  0.17109  Biso   1.000  C
  H169     1.0000 0.42090  0.23809  0.16582  Biso   1.000  H
  C214     1.0000 0.32961  0.18579  0.17042  Biso   1.000  C
  H170     1.0000 0.28641  0.23729  0.16752  Biso   1.000  H
  C215     1.0000 0.08889  0.49409  0.82279  Biso   1.000  C
  H171     1.0000 0.09460  0.50899  0.73499  Biso   1.000  H
  C216     1.0000 0.07241  0.45689  0.85250  Biso   1.000  C
  C217     1.0000 0.01300  0.32009  0.64902  Biso   1.000  C
  H172     1.0000 0.03689  0.37132  0.59879  Biso   1.000  H
  C218     1.0000 0.00999  0.31511  0.71019  Biso   1.000  C
  H173     1.0000 0.03241  0.35631  0.77511  Biso   1.000  H
  C219     1.0000 0.37051  0.82580  0.48731  Biso   1.000  C
  H174     1.0000 0.92979  0.21389  0.50550  Biso   1.000  H
  N36      1.0000 0.92618  0.20761  0.42020  Biso   1.000  N
  H175     1.0000 0.33730  0.90099  0.06899  Biso   1.000  H
  N37      1.0000 0.38779  0.86841  0.06720  Biso   1.000  N
  C220     1.0000 0.07001  0.45131  0.91269  Biso   1.000  C
  C221     1.0000 0.19709  0.35060  0.17301  Biso   1.000  C
  H176     1.0000 0.26191  0.42090  0.16582  Biso   1.000  H
  H177     1.0000 0.39461  0.16230  0.17292  Biso   1.000  H
  C222     1.0000 0.30291  0.14940  0.17301  Biso   1.000  C
  H178     1.0000 0.10041  0.51941  0.84142  Biso   1.000  H
  H179     1.0000 0.00381  0.29920  0.62091  Biso   1.000  H
  C223     1.0000 0.99175  0.27899  0.73919  Biso   1.000  C
  C224     1.0000 0.38759  0.83720  0.55299  Biso   1.000  C
  H180     1.0000 0.33950  0.81641  0.48870  Biso   1.000  H
  H181     1.0000 0.38809  0.80161  0.47082  Biso   1.000  H
  C225     1.0000 0.87599  0.20501  0.42198  Biso   1.000  C
  C226     1.0000 0.37132  0.83128  0.10822  Biso   1.000  C
  C227     1.0000 0.05400  0.41479  0.94160  Biso   1.000  C
  C228     1.0000 0.17039  0.31421  0.17042  Biso   1.000  C
  C229     1.0000 0.32560  0.10439  0.17252  Biso   1.000  C
  C230     1.0000 0.25620  0.14609  0.17221  Biso   1.000  C
  C231     1.0000 0.96779  0.24410  0.70259  Biso   1.000  C
  C232     1.0000 0.98981  0.27331  0.79969  Biso   1.000  C
  H182     1.0000 0.41278  0.85762  0.55201  Biso   1.000  H
  H183     1.0000 0.39601  0.81040  0.57449  Biso   1.000  H
  N38      1.0000 0.34739  0.85879  0.58029  Biso   1.000  N
  H184     1.0000 0.86370  0.22569  0.39298  Biso   1.000  H
  H185     1.0000 0.86570  0.21399  0.46122  Biso   1.000  H
  C233     1.0000 0.85949  0.16080  0.40920  Biso   1.000  C
  H186     1.0000 0.33890  0.83259  0.11019  Biso   1.000  H
  H187     1.0000 0.37930  0.80271  0.09080  Biso   1.000  H
  C234     1.0000 0.39020  0.83369  0.17212  Biso   1.000  C
  N39      1.0000 0.03606  0.37660  0.91792  Biso   1.000  N
  C235     1.0000 0.05089  0.40951  0.00179  Biso   1.000  C
  C236     1.0000 0.12371  0.31260  0.17109  Biso   1.000  C
  N40      1.0000 0.18629  0.27140  0.16939  Biso   1.000  N
  C237     1.0000 0.34769  0.08772  0.12471  Biso   1.000  C
  C238     1.0000 0.32480  0.07869  0.22811  Biso   1.000  C
  C239     1.0000 0.22900  0.10870  0.16890  Biso   1.000  C
  N41      1.0000 0.22860  0.18629  0.16939  Biso   1.000  N
  C240     1.0000 0.92999  0.25449  0.67422  Biso   1.000  C
  C241     1.0000 0.98660  0.20200  0.69071  Biso   1.000  C
  N42      1.0000 0.00508  0.30181  0.84178  Biso   1.000  N
  C242     1.0000 0.96869  0.23592  0.83369  Biso   1.000  C
  C243     1.0000 0.35421  0.89878  0.60210  Biso   1.000  C
  H188     1.0000 0.87269  0.15161  0.37158  Biso   1.000  H
  H189     1.0000 0.82761  0.16350  0.40228  Biso   1.000  H
  N43      1.0000 0.86540  0.12521  0.44960  Biso   1.000  N
  H190     1.0000 0.42181  0.84051  0.17069  Biso   1.000  H
  H191     1.0000 0.38649  0.80499  0.19169  Biso   1.000  H
  N44      1.0000 0.36821  0.86590  0.20362  Biso   1.000  N
  C244     1.0000 0.02239  0.34980  0.95822  Biso   1.000  C
  H192     1.0000 0.03418  0.37132  0.88021  Biso   1.000  H
  C245     1.0000 0.03231  0.36891  0.01801  Biso   1.000  C
  H193     1.0000 0.06022  0.43090  0.02918  Biso   1.000  H
  C246     1.0000 0.10870  0.27100  0.16890  Biso   1.000  C
  H194     1.0000 0.10539  0.33770  0.17292  Biso   1.000  H
  C247     1.0000 0.14609  0.24380  0.17221  Biso   1.000  C
  H195     1.0000 0.21359  0.26271  0.16752  Biso   1.000  H
  C248     1.0000 0.37162  0.04591  0.12560  Biso   1.000  C
  H196     1.0000 0.34749  0.10409  0.08941  Biso   1.000  H
  C249     1.0000 0.34980  0.03940  0.22882  Biso   1.000  C
  H197     1.0000 0.30849  0.08808  0.26122  Biso   1.000  H
  C250     1.0000 0.18740  0.12371  0.17109  Biso   1.000  C
  H198     1.0000 0.23809  0.07910  0.16582  Biso   1.000  H
  C251     1.0000 0.18579  0.17039  0.17042  Biso   1.000  C
  H199     1.0000 0.23729  0.21359  0.16752  Biso   1.000  H
  C252     1.0000 0.90540  0.22171  0.64272  Biso   1.000  C
  H200     1.0000 0.91960  0.28380  0.67511  Biso   1.000  H
  C253     1.0000 0.96401  0.17159  0.65782  Biso   1.000  C
  H201     1.0000 0.01480  0.19501  0.70550  Biso   1.000  H
  C254     1.0000 0.99388  0.28510  0.89750  Biso   1.000  C
  H202     1.0000 0.95469  0.21099  0.81729  Biso   1.000  H
  C255     1.0000 0.97350  0.24440  0.88968  Biso   1.000  C
  C256     1.0000 0.32099  0.92371  0.63539  Biso   1.000  C
  H203     1.0000 0.38201  0.91212  0.59589  Biso   1.000  H
  C257     1.0000 0.87269  0.08611  0.42091  Biso   1.000  C
  C258     1.0000 0.82580  0.12949  0.48731  Biso   1.000  C
  C259     1.0000 0.32610  0.85030  0.23119  Biso   1.000  C
  C260     1.0000 0.39949  0.87990  0.24441  Biso   1.000  C
  C261     1.0000 0.00271  0.30719  0.95380  Biso   1.000  C
  H204     1.0000 0.02740  0.35701  0.05581  Biso   1.000  H
  H205     1.0000 0.07910  0.26191  0.16582  Biso   1.000  H
  C262     1.0000 0.14940  0.19709  0.17301  Biso   1.000  C
  C263     1.0000 0.37188  0.02419  0.17681  Biso   1.000  C
  H206     1.0000 0.38609  0.03479  0.09191  Biso   1.000  H
  H207     1.0000 0.35190  0.02289  0.26390  Biso   1.000  H
  H208     1.0000 0.16230  0.10539  0.17292  Biso   1.000  H
  C264     1.0000 0.92371  0.17901  0.63539  Biso   1.000  C
  H209     1.0000 0.87740  0.22840  0.62708  Biso   1.000  H
  H210     1.0000 0.97741  0.14409  0.65058  Biso   1.000  H
  H211     1.0000 0.96441  0.22559  0.92060  Biso   1.000  H
  C265     1.0000 0.27829  0.90540  0.64272  Biso   1.000  C
  C266     1.0000 0.32841  0.96401  0.65782  Biso   1.000  C
  C267     1.0000 0.91820  0.07478  0.41260  Biso   1.000  C
  H212     1.0000 0.85838  0.06229  0.44330  Biso   1.000  H
  H213     1.0000 0.85838  0.08752  0.38199  Biso   1.000  H
  C268     1.0000 0.83720  0.11241  0.55299  Biso   1.000  C
  H214     1.0000 0.81641  0.16050  0.48870  Biso   1.000  H
  H215     1.0000 0.80161  0.11191  0.47082  Biso   1.000  H
  C269     1.0000 0.29309  0.88512  0.24290  Biso   1.000  C
  H216     1.0000 0.33319  0.83559  0.26872  Biso   1.000  H
  H217     1.0000 0.31270  0.82811  0.20509  Biso   1.000  H
  H218     1.0000 0.38371  0.88619  0.28128  Biso   1.000  H
  H219     1.0000 0.41890  0.85471  0.25228  Biso   1.000  H
  C270     1.0000 0.42929  0.91980  0.23141  Biso   1.000  C
  C271     1.0000 0.98429  0.28510  0.00970  Biso   1.000  C
  C272     1.0000 0.10439  0.17440  0.17252  Biso   1.000  C
  C273     1.0000 0.39928  0.97978  0.18570  Biso   1.000  C
  C274     1.0000 0.89878  0.14579  0.60210  Biso   1.000  C
  C275     1.0000 0.24551  0.92999  0.67422  Biso   1.000  C
  H220     1.0000 0.27160  0.87740  0.62708  Biso   1.000  H
  H221     1.0000 0.35591  0.97741  0.65058  Biso   1.000  H
  C276     1.0000 0.29800  0.98660  0.69071  Biso   1.000  C
  H222     1.0000 0.91960  0.04799  0.38829  Biso   1.000  H
  H223     1.0000 0.93240  0.09861  0.39021  Biso   1.000  H
  N45      1.0000 0.94389  0.06710  0.46680  Biso   1.000  N
  H224     1.0000 0.85762  0.08722  0.55201  Biso   1.000  H
  H225     1.0000 0.81040  0.10399  0.57449  Biso   1.000  H
  N46      1.0000 0.85879  0.15261  0.58029  Biso   1.000  N
  N47      1.0000 0.27301  0.90019  0.18570  Biso   1.000  N
  H226     1.0000 0.26990  0.87359  0.26899  Biso   1.000  H
  H227     1.0000 0.30729  0.91011  0.26269  Biso   1.000  H
  H228     1.0000 0.44349  0.91609  0.19281  Biso   1.000  H
  H229     1.0000 0.45252  0.92191  0.26162  Biso   1.000  H
  N48      1.0000 0.40370  0.95900  0.23150  Biso   1.000  N
  C277     1.0000 0.94229  0.28921  0.02748  Biso   1.000  C
  C278     1.0000 0.01300  0.25981  0.04808  Biso   1.000  C
  C279     1.0000 0.08772  0.15231  0.12471  Biso   1.000  C
  C280     1.0000 0.07869  0.17520  0.22811  Biso   1.000  C
  H230     1.0000 0.41359  0.96839  0.15210  Biso   1.000  H
  H231     1.0000 0.91212  0.11799  0.59589  Biso   1.000  H
  C281     1.0000 0.25590  0.96779  0.70259  Biso   1.000  C
  H232     1.0000 0.21620  0.91960  0.67511  Biso   1.000  H
  H233     1.0000 0.30499  0.01480  0.70550  Biso   1.000  H
  C282     1.0000 0.97811  0.08899  0.48271  Biso   1.000  C
  C283     1.0000 0.27621  0.93999  0.17140  Biso   1.000  C
  H234     1.0000 0.92261  0.30579  0.00438  Biso   1.000  H
  C284     1.0000 0.92679  0.26910  0.08038  Biso   1.000  C
  C285     1.0000 0.99769  0.24089  0.10089  Biso   1.000  C
  H235     1.0000 0.04271  0.25590  0.03731  Biso   1.000  H
  C286     1.0000 0.04591  0.12838  0.12560  Biso   1.000  C
  H236     1.0000 0.10409  0.15251  0.08941  Biso   1.000  H
  C287     1.0000 0.03940  0.15020  0.22882  Biso   1.000  C
  H237     1.0000 0.08808  0.19151  0.26122  Biso   1.000  H
  C288     1.0000 0.22101  0.99175  0.73919  Biso   1.000  C
  C289     1.0000 0.00351  0.08280  0.53820  Biso   1.000  C
  H238     1.0000 0.98810  0.11111  0.45670  Biso   1.000  H
  C290     1.0000 0.25469  0.95539  0.11479  Biso   1.000  C
  H239     1.0000 0.29169  0.95990  0.19549  Biso   1.000  H
  H240     1.0000 0.89701  0.27220  0.09169  Biso   1.000  H
  C291     1.0000 0.95539  0.24531  0.11479  Biso   1.000  C
  H241     1.0000 0.01701  0.22539  0.12592  Biso   1.000  H
  C292     1.0000 0.02419  0.12812  0.17681  Biso   1.000  C
  H242     1.0000 0.03479  0.11391  0.09191  Biso   1.000  H
  H243     1.0000 0.02289  0.14810  0.26390  Biso   1.000  H
  C293     1.0000 0.18489  0.00999  0.71019  Biso   1.000  C
  C294     1.0000 0.22669  0.98981  0.79969  Biso   1.000  C
  C295     1.0000 0.03829  0.10910  0.54960  Biso   1.000  C
  C296     1.0000 0.99151  0.04611  0.57601  Biso   1.000  C
  C297     1.0000 0.23090  0.92679  0.08038  Biso   1.000  C
  C298     1.0000 0.25911  0.99769  0.10089  Biso   1.000  C
  C299     1.0000 0.93999  0.22379  0.17140  Biso   1.000  C
  C300     1.0000 0.97978  0.10072  0.18570  Biso   1.000  C
  C301     1.0000 0.17991  0.01300  0.64902  Biso   1.000  C
  N49      1.0000 0.14780  0.02874  0.73740  Biso   1.000  N
  N50      1.0000 0.19819  0.00508  0.84178  Biso   1.000  N
  C302     1.0000 0.26408  0.96869  0.83369  Biso   1.000  C
  H244     1.0000 0.04738  0.13149  0.52350  Biso   1.000  H
  C303     1.0000 0.06022  0.10102  0.60349  Biso   1.000  C
  C304     1.0000 0.01510  0.03890  0.62672  Biso   1.000  C
  H245     1.0000 0.96779  0.02740  0.56582  Biso   1.000  H
  C305     1.0000 0.21079  0.94229  0.02748  Biso   1.000  C
  H246     1.0000 0.22780  0.89701  0.09169  Biso   1.000  H
  C306     1.0000 0.24019  0.01300  0.04808  Biso   1.000  C
  H247     1.0000 0.27461  0.01701  0.12592  Biso   1.000  H
  H248     1.0000 0.95990  0.20831  0.19549  Biso   1.000  H
  N51      1.0000 0.90019  0.22699  0.18570  Biso   1.000  N
  N52      1.0000 0.95900  0.09630  0.23150  Biso   1.000  N
  H249     1.0000 0.96839  0.08641  0.15210  Biso   1.000  H
  C307     1.0000 0.14021  0.03128  0.63668  Biso   1.000  C
  H250     1.0000 0.20080  0.00381  0.62091  Biso   1.000  H
  C308     1.0000 0.11859  0.04047  0.69209  Biso   1.000  C
  H251     1.0000 0.14369  0.03241  0.77511  Biso   1.000  H
  C309     1.0000 0.21490  0.99388  0.89750  Biso   1.000  C
  H252     1.0000 0.28901  0.95469  0.81729  Biso   1.000  H
  C310     1.0000 0.25560  0.97350  0.88968  Biso   1.000  C
  C311     1.0000 0.04919  0.06590  0.64321  Biso   1.000  C
  H253     1.0000 0.08371  0.11980  0.61399  Biso   1.000  H
  H254     1.0000 0.00759  0.01480  0.65089  Biso   1.000  H
  C312     1.0000 0.21490  0.98429  0.00970  Biso   1.000  C
  H255     1.0000 0.19421  0.92261  0.00438  Biso   1.000  H
  H256     1.0000 0.24410  0.04271  0.03731  Biso   1.000  H
  C313     1.0000 0.88512  0.20691  0.24290  Biso   1.000  C
  C314     1.0000 0.91980  0.07071  0.23141  Biso   1.000  C
  H257     1.0000 0.12868  0.03689  0.59879  Biso   1.000  H
  C315     1.0000 0.07729  0.05851  0.69960  Biso   1.000  C
  C316     1.0000 0.19281  0.00271  0.95380  Biso   1.000  C
  H258     1.0000 0.27441  0.96441  0.92060  Biso   1.000  H
  H259     1.0000 0.87359  0.23010  0.26899  Biso   1.000  H
  H260     1.0000 0.91011  0.19271  0.26269  Biso   1.000  H
  C317     1.0000 0.85030  0.17390  0.23119  Biso   1.000  C
  C318     1.0000 0.87990  0.10051  0.24441  Biso   1.000  C
  H261     1.0000 0.91609  0.05651  0.19281  Biso   1.000  H
  H262     1.0000 0.92191  0.04748  0.26162  Biso   1.000  H
  C319     1.0000 0.05671  0.06633  0.75130  Biso   1.000  C
  C320     1.0000 0.15020  0.02239  0.95822  Biso   1.000  C
  N53      1.0000 0.86590  0.13179  0.20362  Biso   1.000  N
  H263     1.0000 0.83559  0.16681  0.26872  Biso   1.000  H
  H264     1.0000 0.82811  0.18730  0.20509  Biso   1.000  H
  H265     1.0000 0.88619  0.11629  0.28128  Biso   1.000  H
  H266     1.0000 0.85471  0.08110  0.25228  Biso   1.000  H
  C321     1.0000 0.01170  0.08591  0.76381  Biso   1.000  C
  N54      1.0000 0.07338  0.05958  0.80929  Biso   1.000  N
  N55      1.0000 0.12340  0.03606  0.91792  Biso   1.000  N
  C322     1.0000 0.13109  0.03231  0.01801  Biso   1.000  C
  C323     1.0000 0.83369  0.10980  0.17212  Biso   1.000  C
  C324     1.0000 0.00591  0.08889  0.82279  Biso   1.000  C
  H267     1.0000 0.99101  0.09460  0.73499  Biso   1.000  H
  C325     1.0000 0.04311  0.07241  0.85250  Biso   1.000  C
  C326     1.0000 0.08521  0.05400  0.94160  Biso   1.000  C
  H268     1.0000 0.12868  0.03418  0.88021  Biso   1.000  H
  H269     1.0000 0.14299  0.02740  0.05581  Biso   1.000  H
  C327     1.0000 0.09049  0.05089  0.00179  Biso   1.000  C
  C328     1.0000 0.83128  0.12868  0.10822  Biso   1.000  C
  H270     1.0000 0.84051  0.07819  0.17069  Biso   1.000  H
  H271     1.0000 0.80499  0.11351  0.19169  Biso   1.000  H
  H272     1.0000 0.98059  0.10041  0.84142  Biso   1.000  H
  C329     1.0000 0.04869  0.07001  0.91269  Biso   1.000  C
  H273     1.0000 0.06910  0.06022  0.02918  Biso   1.000  H
  N56      1.0000 0.86841  0.11221  0.06720  Biso   1.000  N
  H274     1.0000 0.83259  0.16110  0.11019  Biso   1.000  H
  H275     1.0000 0.80271  0.12070  0.09080  Biso   1.000  H
  C330     1.0000 0.01079  0.08621  0.94920  Biso   1.000  C
  C331     1.0000 0.89999  0.13330  0.05518  Biso   1.000  C
  C332     1.0000 0.00642  0.12999  0.96461  Biso   1.000  C
  C333     1.0000 0.97751  0.05671  0.97431  Biso   1.000  C
  C334     1.0000 0.93902  0.11709  0.01948  Biso   1.000  C
  H276     1.0000 0.90099  0.16270  0.06899  Biso   1.000  H
  H277     1.0000 0.02750  0.15030  0.95071  Biso   1.000  H
  C335     1.0000 0.97049  0.14589  0.00121  Biso   1.000  C
  H278     1.0000 0.97988  0.02610  0.96801  Biso   1.000  H
  C336     1.0000 0.94349  0.07271  0.00630  Biso   1.000  C
  H279     1.0000 0.96909  0.17590  0.01220  Biso   1.000  H
  H280     1.0000 0.92201  0.05290  0.02020  Biso   1.000  H
  C337     1.0000 0.49151  0.54611  0.42399  Biso   1.000  C
  C338     1.0000 0.51510  0.53890  0.37328  Biso   1.000  C
  H281     1.0000 0.46779  0.52740  0.43418  Biso   1.000  H
  C339     1.0000 0.50351  0.58280  0.46180  Biso   1.000  C
  C340     1.0000 0.54919  0.56590  0.35679  Biso   1.000  C
  H282     1.0000 0.50759  0.51480  0.34911  Biso   1.000  H
  C341     1.0000 0.53829  0.60910  0.45040  Biso   1.000  C
  C342     1.0000 0.47811  0.58899  0.51729  Biso   1.000  C
  C343     1.0000 0.57729  0.55851  0.30040  Biso   1.000  C
  C344     1.0000 0.56022  0.60102  0.39651  Biso   1.000  C
  H283     1.0000 0.54738  0.63149  0.47650  Biso   1.000  H
  H284     1.0000 0.48810  0.61111  0.54330  Biso   1.000  H
  N57      1.0000 0.44389  0.56710  0.53320  Biso   1.000  N
  C345     1.0000 0.55671  0.56633  0.24870  Biso   1.000  C
  C346     1.0000 0.61859  0.54047  0.30791  Biso   1.000  C
  H285     1.0000 0.58371  0.61980  0.38601  Biso   1.000  H
  C347     1.0000 0.41820  0.57478  0.58740  Biso   1.000  C
  C348     1.0000 0.51170  0.58591  0.23619  Biso   1.000  C
  N58      1.0000 0.57338  0.55958  0.19071  Biso   1.000  N
  C349     1.0000 0.64021  0.53128  0.36332  Biso   1.000  C
  N59      1.0000 0.64780  0.52874  0.26260  Biso   1.000  N
  H286     1.0000 0.41960  0.54799  0.61171  Biso   1.000  H
  H287     1.0000 0.43240  0.59861  0.60979  Biso   1.000  H
  C350     1.0000 0.37269  0.58611  0.57909  Biso   1.000  C
  C351     1.0000 0.50591  0.58889  0.17721  Biso   1.000  C
  H288     1.0000 0.49101  0.59460  0.26501  Biso   1.000  H
  C352     1.0000 0.54311  0.57241  0.14750  Biso   1.000  C
  H289     1.0000 0.62868  0.53689  0.40121  Biso   1.000  H
  C353     1.0000 0.67991  0.51300  0.35098  Biso   1.000  C
  C354     1.0000 0.68489  0.50999  0.28981  Biso   1.000  C
  H290     1.0000 0.64369  0.53241  0.22489  Biso   1.000  H
  H291     1.0000 0.35838  0.56229  0.55670  Biso   1.000  H
  H292     1.0000 0.35838  0.58752  0.61801  Biso   1.000  H
  N60      1.0000 0.36540  0.62521  0.55040  Biso   1.000  N
  H293     1.0000 0.48059  0.60041  0.15858  Biso   1.000  H
  C355     1.0000 0.54869  0.57001  0.08731  Biso   1.000  C
  H294     1.0000 0.70080  0.50381  0.37909  Biso   1.000  H
  C356     1.0000 0.72101  0.49175  0.26081  Biso   1.000  C
  C357     1.0000 0.32580  0.62949  0.51269  Biso   1.000  C
  C358     1.0000 0.35949  0.66080  0.59080  Biso   1.000  C
  C359     1.0000 0.58521  0.55400  0.05840  Biso   1.000  C
  C360     1.0000 0.51079  0.58621  0.05080  Biso   1.000  C
  C361     1.0000 0.72669  0.48981  0.20031  Biso   1.000  C
  C362     1.0000 0.75590  0.46779  0.29741  Biso   1.000  C
  H295     1.0000 0.31641  0.66050  0.51130  Biso   1.000  H
  H296     1.0000 0.30161  0.61191  0.52918  Biso   1.000  H
  C363     1.0000 0.33720  0.61241  0.44701  Biso   1.000  C
  C364     1.0000 0.37599  0.70501  0.57802  Biso   1.000  C
  H297     1.0000 0.37269  0.65161  0.62842  Biso   1.000  H
  H298     1.0000 0.32761  0.66350  0.59772  Biso   1.000  H
  N61      1.0000 0.62340  0.53606  0.08208  Biso   1.000  N
  C365     1.0000 0.59049  0.55089  0.99821  Biso   1.000  C
  C366     1.0000 0.47751  0.55671  0.02569  Biso   1.000  C
  C367     1.0000 0.50642  0.62999  0.03539  Biso   1.000  C
  C368     1.0000 0.76408  0.46869  0.16631  Biso   1.000  C
  N62      1.0000 0.69819  0.50508  0.15822  Biso   1.000  N
  C369     1.0000 0.74551  0.42999  0.32578  Biso   1.000  C
  C370     1.0000 0.79800  0.48660  0.30929  Biso   1.000  C
  H299     1.0000 0.35762  0.58722  0.44799  Biso   1.000  H
  H300     1.0000 0.31040  0.60399  0.42551  Biso   1.000  H
  N63      1.0000 0.35879  0.65261  0.41971  Biso   1.000  N
  H301     1.0000 0.36370  0.72569  0.60702  Biso   1.000  H
  H302     1.0000 0.36570  0.71399  0.53878  Biso   1.000  H
  N64      1.0000 0.42618  0.70761  0.57980  Biso   1.000  N
  C371     1.0000 0.65020  0.52239  0.04178  Biso   1.000  C
  H303     1.0000 0.62868  0.53418  0.11979  Biso   1.000  H
  C372     1.0000 0.63109  0.53231  0.98199  Biso   1.000  C
  H304     1.0000 0.56910  0.56022  0.97082  Biso   1.000  H
  H305     1.0000 0.47988  0.52610  0.03199  Biso   1.000  H
  C373     1.0000 0.44349  0.57271  0.99370  Biso   1.000  C
  H306     1.0000 0.52750  0.65030  0.04929  Biso   1.000  H
  C374     1.0000 0.47049  0.64589  0.99879  Biso   1.000  C
  H307     1.0000 0.78901  0.45469  0.18271  Biso   1.000  H
  C375     1.0000 0.75560  0.47350  0.11032  Biso   1.000  C
  C376     1.0000 0.71490  0.49388  0.10250  Biso   1.000  C
  H308     1.0000 0.71620  0.41960  0.32489  Biso   1.000  H
  C377     1.0000 0.77829  0.40540  0.35728  Biso   1.000  C
  C378     1.0000 0.82841  0.46401  0.34218  Biso   1.000  C
  H309     1.0000 0.80499  0.51480  0.29450  Biso   1.000  H
  C379     1.0000 0.39878  0.64579  0.39790  Biso   1.000  C
  C380     1.0000 0.44680  0.71259  0.52918  Biso   1.000  C
  C381     1.0000 0.69281  0.50271  0.04620  Biso   1.000  C
  H310     1.0000 0.64299  0.52740  0.94419  Biso   1.000  H
  H311     1.0000 0.42201  0.55290  0.97980  Biso   1.000  H
  C382     1.0000 0.43902  0.61709  0.98052  Biso   1.000  C
  H312     1.0000 0.46909  0.67590  0.98780  Biso   1.000  H
  H313     1.0000 0.77441  0.46441  0.07940  Biso   1.000  H
  H314     1.0000 0.77160  0.37740  0.37292  Biso   1.000  H
  C383     1.0000 0.82099  0.42371  0.36461  Biso   1.000  C
  H315     1.0000 0.85591  0.47741  0.34942  Biso   1.000  H
  C384     1.0000 0.42371  0.67901  0.36461  Biso   1.000  C
  H316     1.0000 0.41212  0.61799  0.40411  Biso   1.000  H
  H317     1.0000 0.42979  0.71389  0.49450  Biso   1.000  H
  C385     1.0000 0.49459  0.71620  0.52408  Biso   1.000  C
  C386     1.0000 0.71490  0.48429  0.99030  Biso   1.000  C
  C387     1.0000 0.39999  0.63330  0.94482  Biso   1.000  C
  C388     1.0000 0.85421  0.39878  0.39790  Biso   1.000  C
  C389     1.0000 0.40540  0.72171  0.35728  Biso   1.000  C
  C390     1.0000 0.46401  0.67159  0.34218  Biso   1.000  C
  C391     1.0000 0.51470  0.72759  0.47399  Biso   1.000  C
  C392     1.0000 0.52219  0.70651  0.57520  Biso   1.000  C
  C393     1.0000 0.71079  0.44229  0.97252  Biso   1.000  C
  C394     1.0000 0.74019  0.51300  0.95192  Biso   1.000  C
  H318     1.0000 0.40099  0.66270  0.93101  Biso   1.000  H
  N65      1.0000 0.36841  0.61221  0.93280  Biso   1.000  N
  H319     1.0000 0.88201  0.41212  0.40411  Biso   1.000  H
  N66      1.0000 0.84739  0.35879  0.41971  Biso   1.000  N
  C395     1.0000 0.42999  0.75449  0.32578  Biso   1.000  C
  H320     1.0000 0.37740  0.72840  0.37292  Biso   1.000  H
  H321     1.0000 0.47741  0.64409  0.34942  Biso   1.000  H
  C396     1.0000 0.48660  0.70200  0.30929  Biso   1.000  C
  H322     1.0000 0.49689  0.73241  0.44048  Biso   1.000  H
  C397     1.0000 0.55931  0.73291  0.46801  Biso   1.000  C
  C398     1.0000 0.56710  0.71039  0.57042  Biso   1.000  C
  H323     1.0000 0.50929  0.69779  0.61122  Biso   1.000  H
  H324     1.0000 0.69421  0.42261  0.99562  Biso   1.000  H
  C399     1.0000 0.73090  0.42679  0.91962  Biso   1.000  C
  C400     1.0000 0.75911  0.49769  0.89911  Biso   1.000  C
  H325     1.0000 0.74410  0.54271  0.96269  Biso   1.000  H
  C401     1.0000 0.33128  0.62868  0.89178  Biso   1.000  C
  C402     1.0000 0.88759  0.33720  0.44701  Biso   1.000  C
  C403     1.0000 0.46779  0.74410  0.29741  Biso   1.000  C
  H326     1.0000 0.41960  0.78380  0.32489  Biso   1.000  H
  H327     1.0000 0.51480  0.69501  0.29450  Biso   1.000  H
  H328     1.0000 0.57171  0.74210  0.43190  Biso   1.000  H
  C404     1.0000 0.58611  0.72419  0.51761  Biso   1.000  C
  H329     1.0000 0.58521  0.70360  0.60290  Biso   1.000  H
  H330     1.0000 0.72780  0.39701  0.90831  Biso   1.000  H
  C405     1.0000 0.75469  0.45539  0.88521  Biso   1.000  C
  H331     1.0000 0.77461  0.51701  0.87408  Biso   1.000  H
  H332     1.0000 0.33259  0.66110  0.88981  Biso   1.000  H
  H333     1.0000 0.30271  0.62070  0.90920  Biso   1.000  H
  C406     1.0000 0.33369  0.60980  0.82788  Biso   1.000  C
  C407     1.0000 0.87051  0.32580  0.51269  Biso   1.000  C
  H334     1.0000 0.91278  0.35762  0.44799  Biso   1.000  H
  H335     1.0000 0.89601  0.31040  0.42551  Biso   1.000  H
  C408     1.0000 0.49175  0.77899  0.26081  Biso   1.000  C
  C409     1.0000 0.63841  0.73351  0.51309  Biso   1.000  C
  C410     1.0000 0.77621  0.43999  0.82860  Biso   1.000  C
  H336     1.0000 0.34051  0.57819  0.82931  Biso   1.000  H
  H337     1.0000 0.30499  0.61351  0.80831  Biso   1.000  H
  N67      1.0000 0.36590  0.63179  0.79638  Biso   1.000  N
  H338     1.0000 0.83950  0.31641  0.51130  Biso   1.000  H
  H339     1.0000 0.88809  0.30161  0.52918  Biso   1.000  H
  N68      1.0000 0.87479  0.36540  0.55040  Biso   1.000  N
  C411     1.0000 0.50999  0.81511  0.28981  Biso   1.000  C
  C412     1.0000 0.48981  0.77331  0.20031  Biso   1.000  C
  C413     1.0000 0.65201  0.77591  0.51309  Biso   1.000  C
  C414     1.0000 0.66270  0.69391  0.51278  Biso   1.000  C
  H340     1.0000 0.79169  0.45990  0.80451  Biso   1.000  H
  N69      1.0000 0.77301  0.40019  0.81430  Biso   1.000  N
  C415     1.0000 0.37990  0.60051  0.75559  Biso   1.000  C
  C416     1.0000 0.35030  0.67390  0.76881  Biso   1.000  C
  C417     1.0000 0.91389  0.37269  0.57909  Biso   1.000  C
  C418     1.0000 0.83920  0.35949  0.59080  Biso   1.000  C
  C419     1.0000 0.51300  0.82009  0.35098  Biso   1.000  C
  N70      1.0000 0.52874  0.85220  0.26260  Biso   1.000  N
  C420     1.0000 0.46869  0.73592  0.16631  Biso   1.000  C
  N71      1.0000 0.50508  0.80181  0.15822  Biso   1.000  N
  C421     1.0000 0.62110  0.81481  0.51421  Biso   1.000  C
  N72      1.0000 0.69391  0.79058  0.51162  Biso   1.000  N
  C422     1.0000 0.64950  0.65010  0.51229  Biso   1.000  C
  N73      1.0000 0.70942  0.69391  0.51162  Biso   1.000  N
  C423     1.0000 0.79309  0.38512  0.75710  Biso   1.000  C
  H341     1.0000 0.38619  0.61629  0.71872  Biso   1.000  H
  H342     1.0000 0.35471  0.58110  0.74772  Biso   1.000  H
  C424     1.0000 0.41980  0.57071  0.76859  Biso   1.000  C
  C425     1.0000 0.38512  0.70691  0.75710  Biso   1.000  C
  H343     1.0000 0.33559  0.66681  0.73128  Biso   1.000  H
  H344     1.0000 0.32811  0.68730  0.79491  Biso   1.000  H
  C426     1.0000 0.92522  0.41820  0.58740  Biso   1.000  C
  H345     1.0000 0.93771  0.35838  0.55670  Biso   1.000  H
  H346     1.0000 0.91248  0.35838  0.61801  Biso   1.000  H
  C427     1.0000 0.79499  0.37599  0.57802  Biso   1.000  C
  H347     1.0000 0.84839  0.37269  0.62842  Biso   1.000  H
  H348     1.0000 0.83650  0.32761  0.59772  Biso   1.000  H
  C428     1.0000 0.53128  0.85979  0.36332  Biso   1.000  C
  H349     1.0000 0.50381  0.79920  0.37909  Biso   1.000  H
  C429     1.0000 0.54047  0.88141  0.30791  Biso   1.000  C
  H350     1.0000 0.53241  0.85631  0.22489  Biso   1.000  H
  H351     1.0000 0.45469  0.71099  0.18271  Biso   1.000  H
  C430     1.0000 0.47350  0.74440  0.11032  Biso   1.000  C
  C431     1.0000 0.49388  0.78510  0.10250  Biso   1.000  C
  H352     1.0000 0.59009  0.81501  0.51568  Biso   1.000  H
  C432     1.0000 0.65010  0.85050  0.51229  Biso   1.000  C
  C433     1.0000 0.69391  0.83730  0.51278  Biso   1.000  C
  H353     1.0000 0.71730  0.77401  0.51010  Biso   1.000  H
  C434     1.0000 0.68519  0.62110  0.51421  Biso   1.000  C
  H354     1.0000 0.61980  0.64101  0.51090  Biso   1.000  H
  C435     1.0000 0.72409  0.65201  0.51309  Biso   1.000  C
  H355     1.0000 0.72599  0.71730  0.51010  Biso   1.000  H
  H356     1.0000 0.76990  0.37359  0.73101  Biso   1.000  H
  H357     1.0000 0.80729  0.41011  0.73731  Biso   1.000  H
  C436     1.0000 0.82610  0.35030  0.76881  Biso   1.000  C
  H358     1.0000 0.41609  0.55651  0.80719  Biso   1.000  H
  H359     1.0000 0.42191  0.54748  0.73838  Biso   1.000  H
  N74      1.0000 0.45900  0.59630  0.76850  Biso   1.000  N
  H360     1.0000 0.37359  0.73010  0.73101  Biso   1.000  H
  H361     1.0000 0.41011  0.69271  0.73731  Biso   1.000  H
  N75      1.0000 0.40019  0.72699  0.81430  Biso   1.000  N
  H362     1.0000 0.95201  0.41960  0.61171  Biso   1.000  H
  H363     1.0000 0.90139  0.43240  0.60979  Biso   1.000  H
  N76      1.0000 0.93290  0.44389  0.53320  Biso   1.000  N
  H364     1.0000 0.77431  0.36370  0.60702  Biso   1.000  H
  H365     1.0000 0.78601  0.36570  0.53878  Biso   1.000  H
  N77      1.0000 0.79239  0.42618  0.57980  Biso   1.000  N
  H366     1.0000 0.53689  0.87132  0.40121  Biso   1.000  H
  C437     1.0000 0.55851  0.92271  0.30040  Biso   1.000  C
  H367     1.0000 0.46441  0.72559  0.07940  Biso   1.000  H
  C438     1.0000 0.50271  0.80719  0.04620  Biso   1.000  C
  H368     1.0000 0.64101  0.88020  0.51090  Biso   1.000  H
  C439     1.0000 0.73351  0.86159  0.51309  Biso   1.000  C
  H369     1.0000 0.68499  0.59009  0.51568  Biso   1.000  H
  C440     1.0000 0.76649  0.63841  0.51309  Biso   1.000  C
  N78      1.0000 0.86821  0.36590  0.79638  Biso   1.000  N
  H370     1.0000 0.83319  0.33559  0.73128  Biso   1.000  H
  H371     1.0000 0.81270  0.32811  0.79491  Biso   1.000  H
  C441     1.0000 0.47978  0.60072  0.81430  Biso   1.000  C
  C442     1.0000 0.43999  0.72379  0.82860  Biso   1.000  C
  C443     1.0000 0.91101  0.47811  0.51729  Biso   1.000  C
  C444     1.0000 0.78741  0.44680  0.52918  Biso   1.000  C
  C445     1.0000 0.56633  0.94329  0.24870  Biso   1.000  C
  C446     1.0000 0.56590  0.95081  0.35679  Biso   1.000  C
  C447     1.0000 0.52239  0.84980  0.04178  Biso   1.000  C
  C448     1.0000 0.48429  0.78510  0.99030  Biso   1.000  C
  C449     1.0000 0.72419  0.91389  0.51761  Biso   1.000  C
  C450     1.0000 0.77591  0.84799  0.51309  Biso   1.000  C
  C451     1.0000 0.77581  0.58611  0.51761  Biso   1.000  C
  C452     1.0000 0.80609  0.66270  0.51278  Biso   1.000  C
  C453     1.0000 0.89020  0.33369  0.82788  Biso   1.000  C
  C454     1.0000 0.89949  0.37990  0.75559  Biso   1.000  C
  H372     1.0000 0.46839  0.58641  0.84790  Biso   1.000  H
  C455     1.0000 0.52419  0.62812  0.82319  Biso   1.000  C
  C456     1.0000 0.45539  0.74531  0.88521  Biso   1.000  C
  H373     1.0000 0.45990  0.70831  0.80451  Biso   1.000  H
  C457     1.0000 0.91720  0.50351  0.46180  Biso   1.000  C
  H374     1.0000 0.88889  0.48810  0.54330  Biso   1.000  H
  H375     1.0000 0.78611  0.42979  0.49450  Biso   1.000  H
  C458     1.0000 0.78380  0.49459  0.52408  Biso   1.000  C
  C459     1.0000 0.58591  0.98830  0.23619  Biso   1.000  C
  N79      1.0000 0.55958  0.92662  0.19071  Biso   1.000  N
  C460     1.0000 0.53890  0.98490  0.37328  Biso   1.000  C
  C461     1.0000 0.60102  0.93978  0.39651  Biso   1.000  C
  N80      1.0000 0.53606  0.87660  0.08208  Biso   1.000  N
  C462     1.0000 0.53231  0.86891  0.98199  Biso   1.000  C
  C463     1.0000 0.44229  0.78921  0.97252  Biso   1.000  C
  C464     1.0000 0.51300  0.75981  0.95192  Biso   1.000  C
  C465     1.0000 0.73291  0.94069  0.46801  Biso   1.000  C
  C466     1.0000 0.71039  0.93290  0.57042  Biso   1.000  C
  N81      1.0000 0.79058  0.80609  0.51162  Biso   1.000  N
  C467     1.0000 0.81481  0.87890  0.51421  Biso   1.000  C
  C468     1.0000 0.76709  0.55931  0.46801  Biso   1.000  C
  C469     1.0000 0.78961  0.56710  0.57042  Biso   1.000  C
  C470     1.0000 0.84990  0.64950  0.51229  Biso   1.000  C
  N82      1.0000 0.80609  0.70942  0.51162  Biso   1.000  N
  C471     1.0000 0.87132  0.33128  0.89178  Biso   1.000  C
  H376     1.0000 0.92181  0.34051  0.82931  Biso   1.000  H
  H377     1.0000 0.88649  0.30499  0.80831  Biso   1.000  H
  H378     1.0000 0.88371  0.38619  0.71872  Biso   1.000  H
  H379     1.0000 0.91890  0.35471  0.74772  Biso   1.000  H
  C472     1.0000 0.92929  0.41980  0.76859  Biso   1.000  C
  C473     1.0000 0.54591  0.62838  0.87440  Biso   1.000  C
  C474     1.0000 0.53940  0.65020  0.77118  Biso   1.000  C
  C475     1.0000 0.42679  0.76910  0.91962  Biso   1.000  C
  C476     1.0000 0.49769  0.74089  0.89911  Biso   1.000  C
  C477     1.0000 0.95389  0.49151  0.42399  Biso   1.000  C
  C478     1.0000 0.89090  0.53829  0.45040  Biso   1.000  C
  C479     1.0000 0.77241  0.51470  0.47399  Biso   1.000  C
  C480     1.0000 0.79349  0.52219  0.57520  Biso   1.000  C
  C481     1.0000 0.58889  0.99409  0.17721  Biso   1.000  C
  H380     1.0000 0.59460  0.00899  0.26501  Biso   1.000  H
  C482     1.0000 0.57241  0.95689  0.14750  Biso   1.000  C
  H381     1.0000 0.51480  0.99241  0.34911  Biso   1.000  H
  C483     1.0000 0.54611  0.00849  0.42399  Biso   1.000  C
  C484     1.0000 0.60910  0.96171  0.45040  Biso   1.000  C
  H382     1.0000 0.61980  0.91629  0.38601  Biso   1.000  H
  C485     1.0000 0.55400  0.91479  0.05840  Biso   1.000  C
  H383     1.0000 0.53418  0.87132  0.11979  Biso   1.000  H
  H384     1.0000 0.52740  0.85701  0.94419  Biso   1.000  H
  C486     1.0000 0.55089  0.90951  0.99821  Biso   1.000  C
  H385     1.0000 0.42261  0.80579  0.99562  Biso   1.000  H
  H386     1.0000 0.54271  0.75590  0.96269  Biso   1.000  H
  C487     1.0000 0.72759  0.98530  0.47399  Biso   1.000  C
  H387     1.0000 0.74210  0.92829  0.43190  Biso   1.000  H
  H388     1.0000 0.70360  0.91479  0.60290  Biso   1.000  H
  C488     1.0000 0.70651  0.97781  0.57520  Biso   1.000  C
  C489     1.0000 0.83730  0.80609  0.51278  Biso   1.000  C
  H389     1.0000 0.77401  0.78270  0.51010  Biso   1.000  H
  C490     1.0000 0.85050  0.84990  0.51229  Biso   1.000  C
  H390     1.0000 0.81501  0.90991  0.51568  Biso   1.000  H
  H391     1.0000 0.75790  0.57171  0.43190  Biso   1.000  H
  H392     1.0000 0.79640  0.58521  0.60290  Biso   1.000  H
  H393     1.0000 0.85899  0.61980  0.51090  Biso   1.000  H
  C491     1.0000 0.87890  0.68519  0.51421  Biso   1.000  C
  C492     1.0000 0.84799  0.72409  0.51309  Biso   1.000  C
  H394     1.0000 0.78270  0.72599  0.51010  Biso   1.000  H
  H395     1.0000 0.83890  0.33259  0.88981  Biso   1.000  H
  H396     1.0000 0.87930  0.30271  0.90920  Biso   1.000  H
  N83      1.0000 0.88779  0.36841  0.93280  Biso   1.000  N
  H397     1.0000 0.94349  0.41609  0.80719  Biso   1.000  H
  H398     1.0000 0.95252  0.42191  0.73838  Biso   1.000  H
  N84      1.0000 0.90370  0.45900  0.76850  Biso   1.000  N
  H399     1.0000 0.53479  0.61391  0.90809  Biso   1.000  H
  C493     1.0000 0.58772  0.65231  0.87529  Biso   1.000  C
  C494     1.0000 0.57869  0.67520  0.77189  Biso   1.000  C
  H400     1.0000 0.52289  0.64810  0.73610  Biso   1.000  H
  H401     1.0000 0.39701  0.77220  0.90831  Biso   1.000  H
  H402     1.0000 0.51701  0.72539  0.87408  Biso   1.000  H
  C495     1.0000 0.96110  0.51510  0.37328  Biso   1.000  C
  H403     1.0000 0.97260  0.46779  0.43418  Biso   1.000  H
  H404     1.0000 0.86851  0.54738  0.47650  Biso   1.000  H
  C496     1.0000 0.89898  0.56022  0.39651  Biso   1.000  C
  H405     1.0000 0.76759  0.49689  0.44048  Biso   1.000  H
  H406     1.0000 0.80221  0.50929  0.61122  Biso   1.000  H
  H407     1.0000 0.60041  0.01941  0.15858  Biso   1.000  H
  C497     1.0000 0.57001  0.95131  0.08731  Biso   1.000  C
  C498     1.0000 0.58280  0.99649  0.46180  Biso   1.000  C
  H408     1.0000 0.52740  0.03221  0.43418  Biso   1.000  H
  H409     1.0000 0.63149  0.95262  0.47650  Biso   1.000  H
  H410     1.0000 0.56022  0.93090  0.97082  Biso   1.000  H
  C499     1.0000 0.71620  0.00541  0.52408  Biso   1.000  C
  H411     1.0000 0.73241  0.00311  0.44048  Biso   1.000  H
  H412     1.0000 0.69779  0.99071  0.61122  Biso   1.000  H
  C500     1.0000 0.86159  0.76649  0.51309  Biso   1.000  C
  H413     1.0000 0.88020  0.85899  0.51090  Biso   1.000  H
  H414     1.0000 0.90991  0.68499  0.51568  Biso   1.000  H
  C501     1.0000 0.86670  0.39999  0.94482  Biso   1.000  C
  C502     1.0000 0.89928  0.47978  0.81430  Biso   1.000  C
  H415     1.0000 0.60409  0.65251  0.91059  Biso   1.000  H
  C503     1.0000 0.60439  0.67440  0.82748  Biso   1.000  C
  H416     1.0000 0.58808  0.69151  0.73878  Biso   1.000  H
  C504     1.0000 0.93410  0.54919  0.35679  Biso   1.000  C
  H417     1.0000 0.98520  0.50759  0.34911  Biso   1.000  H
  H418     1.0000 0.88020  0.58371  0.38601  Biso   1.000  H
  C505     1.0000 0.58621  0.98921  0.05080  Biso   1.000  C
  C506     1.0000 0.58899  0.02189  0.51729  Biso   1.000  C
  C507     1.0000 0.71259  0.05320  0.52918  Biso   1.000  C
  C508     1.0000 0.91389  0.77581  0.51761  Biso   1.000  C
  C509     1.0000 0.88291  0.43902  0.98052  Biso   1.000  C
  H419     1.0000 0.83730  0.40099  0.93101  Biso   1.000  H
  H420     1.0000 0.91359  0.46839  0.84790  Biso   1.000  H
  C510     1.0000 0.87188  0.52419  0.82319  Biso   1.000  C
  C511     1.0000 0.64940  0.69709  0.82699  Biso   1.000  C
  C512     1.0000 0.94149  0.57729  0.30040  Biso   1.000  C
  C513     1.0000 0.62999  0.99358  0.03539  Biso   1.000  C
  C514     1.0000 0.55671  0.02249  0.02569  Biso   1.000  C
  H421     1.0000 0.61111  0.01190  0.54330  Biso   1.000  H
  N85      1.0000 0.56710  0.05611  0.53320  Biso   1.000  N
  H422     1.0000 0.71389  0.07021  0.49450  Biso   1.000  H
  N86      1.0000 0.70761  0.07382  0.57980  Biso   1.000  N
  C515     1.0000 0.94069  0.76709  0.46801  Biso   1.000  C
  C516     1.0000 0.93290  0.78961  0.57042  Biso   1.000  C
  C517     1.0000 0.92729  0.44349  0.99370  Biso   1.000  C
  C518     1.0000 0.85411  0.47049  0.99879  Biso   1.000  C
  C519     1.0000 0.87162  0.54591  0.87440  Biso   1.000  C
  C520     1.0000 0.84980  0.53940  0.77118  Biso   1.000  C
  C521     1.0000 0.68579  0.67039  0.82958  Biso   1.000  C
  C522     1.0000 0.64609  0.74380  0.82779  Biso   1.000  C
  C523     1.0000 0.93367  0.55671  0.24870  Biso   1.000  C
  C524     1.0000 0.95953  0.61859  0.30791  Biso   1.000  C
  H423     1.0000 0.65030  0.97250  0.04929  Biso   1.000  H
  C525     1.0000 0.64589  0.02951  0.99879  Biso   1.000  C
  C526     1.0000 0.57271  0.05651  0.99370  Biso   1.000  C
  H424     1.0000 0.52610  0.02012  0.03199  Biso   1.000  H
  C527     1.0000 0.57478  0.08180  0.58740  Biso   1.000  C
  C528     1.0000 0.70501  0.12401  0.57802  Biso   1.000  C
  C529     1.0000 0.98530  0.77241  0.47399  Biso   1.000  C
  H425     1.0000 0.92829  0.75790  0.43190  Biso   1.000  H
  H426     1.0000 0.91479  0.79640  0.60290  Biso   1.000  H
  C530     1.0000 0.97781  0.79349  0.57520  Biso   1.000  C
  C531     1.0000 0.94329  0.47751  0.02569  Biso   1.000  C
  H427     1.0000 0.94710  0.42201  0.97980  Biso   1.000  H
  C532     1.0000 0.87001  0.50642  0.03539  Biso   1.000  C
  H428     1.0000 0.82410  0.46909  0.98780  Biso   1.000  H
  H429     1.0000 0.88609  0.53479  0.90809  Biso   1.000  H
  C533     1.0000 0.84769  0.58772  0.87529  Biso   1.000  C
  C534     1.0000 0.82480  0.57869  0.77189  Biso   1.000  C
  H430     1.0000 0.85190  0.52289  0.73610  Biso   1.000  H
  C535     1.0000 0.68740  0.62371  0.82891  Biso   1.000  C
  N87      1.0000 0.72860  0.68629  0.83061  Biso   1.000  N
  C536     1.0000 0.60870  0.77100  0.83110  Biso   1.000  C
  N88      1.0000 0.68629  0.77140  0.83061  Biso   1.000  N
  C537     1.0000 0.91409  0.51170  0.23619  Biso   1.000  C
  N89      1.0000 0.94042  0.57338  0.19071  Biso   1.000  N
  C538     1.0000 0.96872  0.64021  0.36332  Biso   1.000  C
  N90      1.0000 0.97126  0.64780  0.26260  Biso   1.000  N
  C539     1.0000 0.61709  0.06098  0.98052  Biso   1.000  C
  H431     1.0000 0.67590  0.03091  0.98780  Biso   1.000  H
  H432     1.0000 0.55290  0.07799  0.97980  Biso   1.000  H
  H433     1.0000 0.54799  0.08040  0.61171  Biso   1.000  H
  H434     1.0000 0.59861  0.06760  0.60979  Biso   1.000  H
  C540     1.0000 0.58611  0.12731  0.57909  Biso   1.000  C
  H435     1.0000 0.72569  0.13630  0.60702  Biso   1.000  H
  H436     1.0000 0.71399  0.13430  0.53878  Biso   1.000  H
  C541     1.0000 0.66080  0.14051  0.59080  Biso   1.000  C
  C542     1.0000 0.00541  0.78380  0.52408  Biso   1.000  C
  H437     1.0000 0.00311  0.76759  0.44048  Biso   1.000  H
  H438     1.0000 0.99071  0.80221  0.61122  Biso   1.000  H
  C543     1.0000 0.91379  0.51079  0.05080  Biso   1.000  C
  H439     1.0000 0.97390  0.47988  0.03199  Biso   1.000  H
  H440     1.0000 0.84970  0.52750  0.04929  Biso   1.000  H
  H441     1.0000 0.84749  0.60409  0.91059  Biso   1.000  H
  C544     1.0000 0.82560  0.60439  0.82748  Biso   1.000  C
  H442     1.0000 0.80849  0.58808  0.73878  Biso   1.000  H
  H443     1.0000 0.66230  0.60539  0.82708  Biso   1.000  H
  C545     1.0000 0.72900  0.60870  0.83110  Biso   1.000  C
  C546     1.0000 0.75620  0.64609  0.82779  Biso   1.000  C
  H444     1.0000 0.73729  0.71359  0.83248  Biso   1.000  H
  C547     1.0000 0.62371  0.81260  0.82891  Biso   1.000  C
  H445     1.0000 0.57910  0.76191  0.83418  Biso   1.000  H
  C548     1.0000 0.67039  0.81421  0.82958  Biso   1.000  C
  H446     1.0000 0.71359  0.76271  0.83248  Biso   1.000  H
  C549     1.0000 0.91111  0.50591  0.17721  Biso   1.000  C
  H447     1.0000 0.90540  0.49101  0.26501  Biso   1.000  H
  C550     1.0000 0.92759  0.54311  0.14750  Biso   1.000  C
  H448     1.0000 0.96311  0.62868  0.40121  Biso   1.000  H
  C551     1.0000 0.98700  0.67991  0.35098  Biso   1.000  C
  C552     1.0000 0.99001  0.68489  0.28981  Biso   1.000  C
  H449     1.0000 0.96759  0.64369  0.22489  Biso   1.000  H
  C553     1.0000 0.63330  0.10001  0.94482  Biso   1.000  C
  H450     1.0000 0.56229  0.14162  0.55670  Biso   1.000  H
  H451     1.0000 0.58752  0.14162  0.61801  Biso   1.000  H
  N91      1.0000 0.62521  0.13460  0.55040  Biso   1.000  N
  H452     1.0000 0.65161  0.12731  0.62842  Biso   1.000  H
  H453     1.0000 0.66350  0.17239  0.59772  Biso   1.000  H
  C554     1.0000 0.05320  0.78741  0.52918  Biso   1.000  C
  C555     1.0000 0.92999  0.54869  0.08731  Biso   1.000  C
  C556     1.0000 0.80291  0.64940  0.82699  Biso   1.000  C
  H454     1.0000 0.73809  0.57910  0.83418  Biso   1.000  H
  H455     1.0000 0.60539  0.83770  0.82708  Biso   1.000  H
  C557     1.0000 0.69709  0.85060  0.82699  Biso   1.000  C
  H456     1.0000 0.89959  0.48059  0.15858  Biso   1.000  H
  H457     1.0000 0.99619  0.70080  0.37909  Biso   1.000  H
  C558     1.0000 0.00825  0.72101  0.26081  Biso   1.000  C
  H458     1.0000 0.66270  0.09901  0.93101  Biso   1.000  H
  N92      1.0000 0.61221  0.13159  0.93280  Biso   1.000  N
  C559     1.0000 0.62949  0.17420  0.51269  Biso   1.000  C
  H459     1.0000 0.07021  0.78611  0.49450  Biso   1.000  H
  N93      1.0000 0.07382  0.79239  0.57980  Biso   1.000  N
  C560     1.0000 0.94600  0.58521  0.05840  Biso   1.000  C
  C561     1.0000 0.82961  0.68579  0.82958  Biso   1.000  C
  C562     1.0000 0.67440  0.89561  0.82748  Biso   1.000  C
  C563     1.0000 0.74380  0.85391  0.82779  Biso   1.000  C
  C564     1.0000 0.01019  0.72669  0.20031  Biso   1.000  C
  C565     1.0000 0.03221  0.75590  0.29741  Biso   1.000  C
  C566     1.0000 0.62868  0.16872  0.89178  Biso   1.000  C
  C567     1.0000 0.61241  0.16280  0.44701  Biso   1.000  C
  H460     1.0000 0.66050  0.18359  0.51130  Biso   1.000  H
  H461     1.0000 0.61191  0.19839  0.52918  Biso   1.000  H
  C568     1.0000 0.12401  0.79499  0.57802  Biso   1.000  C
  N94      1.0000 0.96394  0.62340  0.08208  Biso   1.000  N
  C569     1.0000 0.94911  0.59049  0.99821  Biso   1.000  C
  C570     1.0000 0.87629  0.68740  0.82891  Biso   1.000  C
  N95      1.0000 0.81371  0.72860  0.83061  Biso   1.000  N
  C571     1.0000 0.65231  0.91228  0.87529  Biso   1.000  C
  C572     1.0000 0.67520  0.92131  0.77189  Biso   1.000  C
  C573     1.0000 0.77100  0.89130  0.83110  Biso   1.000  C
  N96      1.0000 0.77140  0.81371  0.83061  Biso   1.000  N
  N97      1.0000 0.99492  0.69819  0.15822  Biso   1.000  N
  C574     1.0000 0.03131  0.76408  0.16631  Biso   1.000  C
  C575     1.0000 0.07001  0.74551  0.32578  Biso   1.000  C
  C576     1.0000 0.01340  0.79800  0.30929  Biso   1.000  C
  H462     1.0000 0.66110  0.16741  0.88981  Biso   1.000  H
  H463     1.0000 0.62070  0.19729  0.90920  Biso   1.000  H
  C577     1.0000 0.60980  0.16631  0.82788  Biso   1.000  C
  H464     1.0000 0.58722  0.14238  0.44799  Biso   1.000  H
  H465     1.0000 0.60399  0.18960  0.42551  Biso   1.000  H
  N98      1.0000 0.65261  0.14121  0.41971  Biso   1.000  N
  H466     1.0000 0.13630  0.77431  0.60702  Biso   1.000  H
  H467     1.0000 0.13430  0.78601  0.53878  Biso   1.000  H
  C578     1.0000 0.14051  0.83920  0.59080  Biso   1.000  C
  C579     1.0000 0.97761  0.65020  0.04178  Biso   1.000  C
  H468     1.0000 0.96582  0.62868  0.11979  Biso   1.000  H
  C580     1.0000 0.96769  0.63109  0.98199  Biso   1.000  C
  H469     1.0000 0.93978  0.56910  0.97082  Biso   1.000  H
  H470     1.0000 0.89461  0.66230  0.82708  Biso   1.000  H
  C581     1.0000 0.89130  0.72900  0.83110  Biso   1.000  C
  C582     1.0000 0.85391  0.75620  0.82779  Biso   1.000  C
  H471     1.0000 0.78641  0.73729  0.83248  Biso   1.000  H
  C583     1.0000 0.62838  0.95409  0.87440  Biso   1.000  C
  H472     1.0000 0.65251  0.89591  0.91059  Biso   1.000  H
  H473     1.0000 0.69151  0.91192  0.73878  Biso   1.000  H
  C584     1.0000 0.65020  0.96060  0.77118  Biso   1.000  C
  C585     1.0000 0.81260  0.87629  0.82891  Biso   1.000  C
  H474     1.0000 0.76191  0.92090  0.83418  Biso   1.000  H
  C586     1.0000 0.81421  0.82961  0.82958  Biso   1.000  C
  H475     1.0000 0.76271  0.78641  0.83248  Biso   1.000  H
  C587     1.0000 0.00612  0.71490  0.10250  Biso   1.000  C
  H476     1.0000 0.04531  0.78901  0.18271  Biso   1.000  H
  C588     1.0000 0.02650  0.75560  0.11032  Biso   1.000  C
  H477     1.0000 0.08040  0.71620  0.32489  Biso   1.000  H
  C589     1.0000 0.09460  0.77829  0.35728  Biso   1.000  C
  H478     1.0000 0.98520  0.80499  0.29450  Biso   1.000  H
  C590     1.0000 0.03599  0.82841  0.34218  Biso   1.000  C
  H479     1.0000 0.57819  0.15949  0.82931  Biso   1.000  H
  H480     1.0000 0.61351  0.19501  0.80831  Biso   1.000  H
  N99      1.0000 0.63179  0.13410  0.79638  Biso   1.000  N
  C591     1.0000 0.64579  0.10122  0.39790  Biso   1.000  C
  H481     1.0000 0.12731  0.84839  0.62842  Biso   1.000  H
  H482     1.0000 0.17239  0.83650  0.59772  Biso   1.000  H
  N100     1.0000 0.13460  0.87479  0.55040  Biso   1.000  N
  C592     1.0000 0.99729  0.69281  0.04620  Biso   1.000  C
  H483     1.0000 0.97260  0.64299  0.94419  Biso   1.000  H
  H484     1.0000 0.92090  0.73809  0.83418  Biso   1.000  H
  C593     1.0000 0.85060  0.80291  0.82699  Biso   1.000  C
  C594     1.0000 0.62812  0.97581  0.82319  Biso   1.000  C
  H485     1.0000 0.61391  0.96521  0.90809  Biso   1.000  H
  H486     1.0000 0.64810  0.97711  0.73610  Biso   1.000  H
  H487     1.0000 0.83770  0.89461  0.82708  Biso   1.000  H
  H488     1.0000 0.03559  0.77441  0.07940  Biso   1.000  H
  H489     1.0000 0.12260  0.77160  0.37292  Biso   1.000  H
  C595     1.0000 0.07629  0.82099  0.36461  Biso   1.000  C
  H490     1.0000 0.02259  0.85591  0.34942  Biso   1.000  H
  C596     1.0000 0.67390  0.14970  0.76881  Biso   1.000  C
  C597     1.0000 0.60051  0.12010  0.75559  Biso   1.000  C
  C598     1.0000 0.67901  0.07629  0.36461  Biso   1.000  C
  H491     1.0000 0.61799  0.08788  0.40411  Biso   1.000  H
  C599     1.0000 0.12731  0.91389  0.57909  Biso   1.000  C
  C600     1.0000 0.17420  0.87051  0.51269  Biso   1.000  C
  C601     1.0000 0.01571  0.71490  0.99030  Biso   1.000  C
  C602     1.0000 0.89561  0.82560  0.82748  Biso   1.000  C
  C603     1.0000 0.60072  0.02022  0.81430  Biso   1.000  C
  C604     1.0000 0.10122  0.85421  0.39790  Biso   1.000  C
  C605     1.0000 0.70691  0.11488  0.75710  Biso   1.000  C
  H492     1.0000 0.66681  0.16441  0.73128  Biso   1.000  H
  H493     1.0000 0.68730  0.17189  0.79491  Biso   1.000  H
  C606     1.0000 0.57071  0.08020  0.76859  Biso   1.000  C
  H494     1.0000 0.61629  0.11381  0.71872  Biso   1.000  H
  H495     1.0000 0.58110  0.14529  0.74772  Biso   1.000  H
  C607     1.0000 0.72171  0.09460  0.35728  Biso   1.000  C
  C608     1.0000 0.67159  0.03599  0.34218  Biso   1.000  C
  C609     1.0000 0.08180  0.92522  0.58740  Biso   1.000  C
  H496     1.0000 0.14162  0.93771  0.55670  Biso   1.000  H
  H497     1.0000 0.14162  0.91248  0.61801  Biso   1.000  H
  C610     1.0000 0.16280  0.88759  0.44701  Biso   1.000  C
  H498     1.0000 0.18359  0.83950  0.51130  Biso   1.000  H
  H499     1.0000 0.19839  0.88809  0.52918  Biso   1.000  H
  C611     1.0000 0.98700  0.74019  0.95192  Biso   1.000  C
  C612     1.0000 0.05771  0.71079  0.97252  Biso   1.000  C
  C613     1.0000 0.91228  0.84769  0.87529  Biso   1.000  C
  C614     1.0000 0.92131  0.82480  0.77189  Biso   1.000  C
  H500     1.0000 0.58641  0.03161  0.84790  Biso   1.000  H
  N101     1.0000 0.59630  0.04100  0.76850  Biso   1.000  N
  H501     1.0000 0.08788  0.88201  0.40411  Biso   1.000  H
  N102     1.0000 0.14121  0.84739  0.41971  Biso   1.000  N
  H502     1.0000 0.73010  0.12641  0.73101  Biso   1.000  H
  H503     1.0000 0.69271  0.08989  0.73731  Biso   1.000  H
  N103     1.0000 0.72699  0.09981  0.81430  Biso   1.000  N
  H504     1.0000 0.55651  0.08391  0.80719  Biso   1.000  H
  H505     1.0000 0.54748  0.07809  0.73838  Biso   1.000  H
  C615     1.0000 0.75449  0.07001  0.32578  Biso   1.000  C
  H506     1.0000 0.72840  0.12260  0.37292  Biso   1.000  H
  H507     1.0000 0.64409  0.02259  0.34942  Biso   1.000  H
  C616     1.0000 0.70200  0.01340  0.30929  Biso   1.000  C
  H508     1.0000 0.08040  0.95201  0.61171  Biso   1.000  H
  H509     1.0000 0.06760  0.90139  0.60979  Biso   1.000  H
  N104     1.0000 0.05611  0.93290  0.53320  Biso   1.000  N
  H510     1.0000 0.14238  0.91278  0.44799  Biso   1.000  H
  H511     1.0000 0.18960  0.89601  0.42551  Biso   1.000  H
  H512     1.0000 0.95729  0.74410  0.96269  Biso   1.000  H
  C617     1.0000 0.00231  0.75911  0.89911  Biso   1.000  C
  H513     1.0000 0.07739  0.69421  0.99562  Biso   1.000  H
  C618     1.0000 0.07321  0.73090  0.91962  Biso   1.000  C
  C619     1.0000 0.95409  0.87162  0.87440  Biso   1.000  C
  H514     1.0000 0.89591  0.84749  0.91059  Biso   1.000  H
  H515     1.0000 0.91192  0.80849  0.73878  Biso   1.000  H
  C620     1.0000 0.96060  0.84980  0.77118  Biso   1.000  C
  C621     1.0000 0.72379  0.06001  0.82860  Biso   1.000  C
  C622     1.0000 0.74410  0.03221  0.29741  Biso   1.000  C
  H516     1.0000 0.78380  0.08040  0.32489  Biso   1.000  H
  H517     1.0000 0.69501  0.98520  0.29450  Biso   1.000  H
  C623     1.0000 0.02189  0.91101  0.51729  Biso   1.000  C
  H518     1.0000 0.98299  0.77461  0.87408  Biso   1.000  H
  C624     1.0000 0.04461  0.75469  0.88521  Biso   1.000  C
  H519     1.0000 0.10299  0.72780  0.90831  Biso   1.000  H
  C625     1.0000 0.97581  0.87188  0.82319  Biso   1.000  C
  H520     1.0000 0.96521  0.88609  0.90809  Biso   1.000  H
  H521     1.0000 0.97711  0.85190  0.73610  Biso   1.000  H
  C626     1.0000 0.74531  0.04461  0.88521  Biso   1.000  C
  H522     1.0000 0.70831  0.04010  0.80451  Biso   1.000  H
  C627     1.0000 0.77899  0.00825  0.26081  Biso   1.000  C
  C628     1.0000 0.99649  0.91720  0.46180  Biso   1.000  C
  H523     1.0000 0.01190  0.88889  0.54330  Biso   1.000  H
  C629     1.0000 0.06001  0.77621  0.82860  Biso   1.000  C
  C630     1.0000 0.02022  0.89928  0.81430  Biso   1.000  C
  C631     1.0000 0.76910  0.07321  0.91962  Biso   1.000  C
  C632     1.0000 0.74089  0.00231  0.89911  Biso   1.000  C
  C633     1.0000 0.81511  0.99001  0.28981  Biso   1.000  C
  C634     1.0000 0.77331  0.01019  0.20031  Biso   1.000  C
  C635     1.0000 0.96171  0.89090  0.45040  Biso   1.000  C
  C636     1.0000 0.00849  0.95389  0.42399  Biso   1.000  C
  H524     1.0000 0.04010  0.79169  0.80451  Biso   1.000  H
  N105     1.0000 0.09981  0.77301  0.81430  Biso   1.000  N
  H525     1.0000 0.03161  0.91359  0.84790  Biso   1.000  H
  N106     1.0000 0.04100  0.90370  0.76850  Biso   1.000  N
  C637     1.0000 0.78921  0.05771  0.97252  Biso   1.000  C
  H526     1.0000 0.77220  0.10299  0.90831  Biso   1.000  H
  H527     1.0000 0.72539  0.98299  0.87408  Biso   1.000  H
  C638     1.0000 0.75981  0.98700  0.95192  Biso   1.000  C
  C639     1.0000 0.82009  0.98700  0.35098  Biso   1.000  C
  N107     1.0000 0.85220  0.97126  0.26260  Biso   1.000  N
  N108     1.0000 0.80181  0.99492  0.15822  Biso   1.000  N
  C640     1.0000 0.73592  0.03131  0.16631  Biso   1.000  C
  H528     1.0000 0.95262  0.86851  0.47650  Biso   1.000  H
  C641     1.0000 0.93978  0.89898  0.39651  Biso   1.000  C
  C642     1.0000 0.98490  0.96110  0.37328  Biso   1.000  C
  H529     1.0000 0.03221  0.97260  0.43418  Biso   1.000  H
  C643     1.0000 0.11488  0.79309  0.75710  Biso   1.000  C
  C644     1.0000 0.08020  0.92929  0.76859  Biso   1.000  C
  C645     1.0000 0.78510  0.01571  0.99030  Biso   1.000  C
  H530     1.0000 0.80579  0.07739  0.99562  Biso   1.000  H
  H531     1.0000 0.75590  0.95729  0.96269  Biso   1.000  H
  C646     1.0000 0.85979  0.96872  0.36332  Biso   1.000  C
  H532     1.0000 0.79920  0.99619  0.37909  Biso   1.000  H
  C647     1.0000 0.88141  0.95953  0.30791  Biso   1.000  C
  H533     1.0000 0.85631  0.96759  0.22489  Biso   1.000  H
  C648     1.0000 0.78510  0.00612  0.10250  Biso   1.000  C
  H534     1.0000 0.71099  0.04531  0.18271  Biso   1.000  H
  C649     1.0000 0.74440  0.02650  0.11032  Biso   1.000  C
  C650     1.0000 0.95081  0.93410  0.35679  Biso   1.000  C
  H535     1.0000 0.91629  0.88020  0.38601  Biso   1.000  H
  H536     1.0000 0.99241  0.98520  0.34911  Biso   1.000  H
  H537     1.0000 0.12641  0.76990  0.73101  Biso   1.000  H
  H538     1.0000 0.08989  0.80729  0.73731  Biso   1.000  H
  C651     1.0000 0.14970  0.82610  0.76881  Biso   1.000  C
  C652     1.0000 0.12010  0.89949  0.75559  Biso   1.000  C
  H539     1.0000 0.08391  0.94349  0.80719  Biso   1.000  H
  H540     1.0000 0.07809  0.95252  0.73838  Biso   1.000  H
  C653     1.0000 0.80719  0.99729  0.04620  Biso   1.000  C
  H541     1.0000 0.87132  0.96311  0.40121  Biso   1.000  H
  C654     1.0000 0.92271  0.94149  0.30040  Biso   1.000  C
  H542     1.0000 0.72559  0.03559  0.07940  Biso   1.000  H
  H543     1.0000 0.16441  0.83319  0.73128  Biso   1.000  H
  H544     1.0000 0.17189  0.81270  0.79491  Biso   1.000  H
  N109     1.0000 0.13410  0.86821  0.79638  Biso   1.000  N
  H545     1.0000 0.11381  0.88371  0.71872  Biso   1.000  H
  H546     1.0000 0.14529  0.91890  0.74772  Biso   1.000  H
  C655     1.0000 0.84980  0.97761  0.04178  Biso   1.000  C
  C656     1.0000 0.94329  0.93367  0.24870  Biso   1.000  C
  C657     1.0000 0.16631  0.89020  0.82788  Biso   1.000  C
  N110     1.0000 0.87660  0.96394  0.08208  Biso   1.000  N
  C658     1.0000 0.86891  0.96769  0.98199  Biso   1.000  C
  C659     1.0000 0.98830  0.91409  0.23619  Biso   1.000  C
  N111     1.0000 0.92662  0.94042  0.19071  Biso   1.000  N
  C660     1.0000 0.16872  0.87132  0.89178  Biso   1.000  C
  H547     1.0000 0.15949  0.92181  0.82931  Biso   1.000  H
  H548     1.0000 0.19501  0.88649  0.80831  Biso   1.000  H
  C661     1.0000 0.91479  0.94600  0.05840  Biso   1.000  C
  H549     1.0000 0.87132  0.96582  0.11979  Biso   1.000  H
  H550     1.0000 0.85701  0.97260  0.94419  Biso   1.000  H
  C662     1.0000 0.90951  0.94911  0.99821  Biso   1.000  C
  C663     1.0000 0.99409  0.91111  0.17721  Biso   1.000  C
  H551     1.0000 0.00899  0.90540  0.26501  Biso   1.000  H
  C664     1.0000 0.95689  0.92759  0.14750  Biso   1.000  C
  H552     1.0000 0.16741  0.83890  0.88981  Biso   1.000  H
  H553     1.0000 0.19729  0.87930  0.90920  Biso   1.000  H
  N112     1.0000 0.13159  0.88779  0.93280  Biso   1.000  N
  C665     1.0000 0.95131  0.92999  0.08731  Biso   1.000  C
  H554     1.0000 0.93090  0.93978  0.97082  Biso   1.000  H
  H555     1.0000 0.01941  0.89959  0.15858  Biso   1.000  H
  C666     1.0000 0.10001  0.86670  0.94482  Biso   1.000  C
  C667     1.0000 0.98921  0.91379  0.05080  Biso   1.000  C
  C668     1.0000 0.06098  0.88291  0.98052  Biso   1.000  C
  H556     1.0000 0.09901  0.83730  0.93101  Biso   1.000  H
  C669     1.0000 0.02249  0.94329  0.02569  Biso   1.000  C
  C670     1.0000 0.99358  0.87001  0.03539  Biso   1.000  C
  C671     1.0000 0.05651  0.92729  0.99370  Biso   1.000  C
  C672     1.0000 0.02951  0.85411  0.99879  Biso   1.000  C
  H557     1.0000 0.02012  0.97390  0.03199  Biso   1.000  H
  H558     1.0000 0.97250  0.84970  0.04929  Biso   1.000  H
  H559     1.0000 0.07799  0.94710  0.97980  Biso   1.000  H
  H560     1.0000 0.03091  0.82410  0.98780  Biso   1.000  H
  Ne1      1.0000 0.25000  0.25000  0.82707  Biso   1.000  Ne
  He1      1.0000 0.31632  0.44675  0.11077  Biso   1.000  He
  He2      1.0000 0.06196  0.31542  0.09745  Biso   1.000  He
  He3      1.0000 0.44579  0.18380  0.10932  Biso   1.000  He
  He4      1.0000 0.16242  0.50640  0.86633  Biso   1.000  He
  He5      1.0000 0.51701  0.33788  0.78575  Biso   1.000  He
  He6      1.0000 0.37189  0.41563  0.54677  Biso   1.000  He
  He7      1.0000 0.41629  0.12750  0.54539  Biso   1.000  He
  He8      1.0000 0.19016  0.06596  0.56499  Biso   1.000  He
  Ar1      1.0000 0.25000  0.25000  0.82707  Biso   1.000  Ar
  Ne2      1.0000 0.75000  0.75000  0.17293  Biso   1.000  Ne
  He9      1.0000 0.54222  0.81543  0.45849  Biso   1.000  He
  He10     1.0000 0.80977  0.93384  0.43476  Biso   1.000  He
  He11     1.0000 0.66178  0.01781  0.21456  Biso   1.000  He
  He12     1.0000 0.83983  0.48493  0.13245  Biso   1.000  He
  He13     1.0000 0.47454  0.65859  0.21745  Biso   1.000  He
  He14     1.0000 0.55440  0.81617  0.89097  Biso   1.000  He
  He15     1.0000 0.86076  0.90704  0.90825  Biso   1.000  He
  He16     1.0000 0.62833  0.57990  0.88994  Biso   1.000  He
  Ar2      1.0000 0.75000  0.75000  0.17293  Biso   1.000  Ar
