data_image0
_cell_length_a       14.014
_cell_length_b       14.014
_cell_length_c       43.771
_cell_angle_alpha    90
_cell_angle_beta     90
_cell_angle_gamma    120

_symmetry_space_group_name_H-M    "P 1"
_symmetry_int_tables_number       1

loop_
  _symmetry_equiv_pos_as_xyz
  'x, y, z'

loop_
  _atom_site_label
  _atom_site_occupancy
  _atom_site_fract_x
  _atom_site_fract_y
  _atom_site_fract_z
  _atom_site_thermal_displace_type
  _atom_site_B_iso_or_equiv
  _atom_site_type_symbol
  C1       1.0000 0.25162  0.17114  0.46700  Biso   1.000  C
  C2       1.0000 0.21703  0.06971  0.44767  Biso   1.000  C
  O1       1.0000 0.22156  0.24018  0.45085  Biso   1.000  O
  H1       1.0000 0.21482  0.15079  0.48665  Biso   1.000  H
  H2       1.0000 0.33049  0.20929  0.47040  Biso   1.000  H
  C3       1.0000 0.27140  0.09583  0.41642  Biso   1.000  C
  H3       1.0000 0.13762  0.03148  0.44507  Biso   1.000  H
  H4       1.0000 0.23549  0.02043  0.45836  Biso   1.000  H
  C4       1.0000 0.25364  0.34244  0.46264  Biso   1.000  C
  C5       1.0000 0.39525  0.15771  0.41692  Biso   1.000  C
  H5       1.0000 0.24658  0.02719  0.40545  Biso   1.000  H
  H6       1.0000 0.24664  0.13892  0.40506  Biso   1.000  H
  C6       1.0000 0.32418  0.38990  0.48694  Biso   1.000  C
  C7       1.0000 0.20931  0.39979  0.44865  Biso   1.000  C
  C8       1.0000 0.44967  0.18605  0.38564  Biso   1.000  C
  H7       1.0000 0.42004  0.11395  0.42786  Biso   1.000  H
  H8       1.0000 0.42006  0.22560  0.42827  Biso   1.000  H
  C9       1.0000 0.34817  0.49298  0.49722  Biso   1.000  C
  H9       1.0000 0.35559  0.35282  0.49645  Biso   1.000  H
  H10      1.0000 0.16281  0.36930  0.43193  Biso   1.000  H
  C10      1.0000 0.23361  0.50204  0.45928  Biso   1.000  C
  C11      1.0000 0.41508  0.25287  0.36634  Biso   1.000  C
  H11      1.0000 0.52907  0.22725  0.38827  Biso   1.000  H
  H12      1.0000 0.43118  0.11824  0.37497  Biso   1.000  H
  C12      1.0000 0.30282  0.55098  0.48411  Biso   1.000  C
  H13      1.0000 0.39669  0.52437  0.51351  Biso   1.000  H
  H14      1.0000 0.20270  0.53912  0.44957  Biso   1.000  H
  O2       1.0000 0.44512  0.35191  0.38249  Biso   1.000  O
  H15      1.0000 0.45186  0.26935  0.34669  Biso   1.000  H
  H16      1.0000 0.33621  0.21217  0.36293  Biso   1.000  H
  C13      1.0000 0.33326  0.66667  0.49565  Biso   1.000  C
  C14      1.0000 0.41307  0.42212  0.37070  Biso   1.000  C
  C15      1.0000 0.33326  0.66667  0.53113  Biso   1.000  C
  C16      1.0000 0.24822  0.69724  0.48411  Biso   1.000  C
  C17      1.0000 0.44896  0.75178  0.48411  Biso   1.000  C
  C18      1.0000 0.34245  0.39904  0.34639  Biso   1.000  C
  C19      1.0000 0.45734  0.52379  0.38468  Biso   1.000  C
  H17      1.0000 0.39263  0.65711  0.53844  Biso   1.000  H
  H18      1.0000 0.26454  0.60742  0.53844  Biso   1.000  H
  H19      1.0000 0.34290  0.73547  0.53844  Biso   1.000  H
  C20      1.0000 0.14481  0.65184  0.49722  Biso   1.000  C
  C21      1.0000 0.26837  0.76637  0.45928  Biso   1.000  C
  C22      1.0000 0.50702  0.85519  0.49722  Biso   1.000  C
  C23      1.0000 0.49802  0.73160  0.45928  Biso   1.000  C
  C24      1.0000 0.31849  0.47815  0.33611  Biso   1.000  C
  H20      1.0000 0.31107  0.33057  0.33689  Biso   1.000  H
  C25      1.0000 0.43309  0.60174  0.37406  Biso   1.000  C
  H21      1.0000 0.50391  0.53986  0.40141  Biso   1.000  H
  C26      1.0000 0.06568  0.67581  0.48694  Biso   1.000  C
  H22      1.0000 0.12768  0.60331  0.51351  Biso   1.000  H
  C27      1.0000 0.19047  0.79067  0.44865  Biso   1.000  C
  H23      1.0000 0.33641  0.79727  0.44957  Biso   1.000  H
  C28      1.0000 0.61007  0.93429  0.48694  Biso   1.000  C
  H24      1.0000 0.47562  0.87233  0.51351  Biso   1.000  H
  C29      1.0000 0.60018  0.80946  0.44865  Biso   1.000  C
  H25      1.0000 0.46089  0.66362  0.44957  Biso   1.000  H
  C30      1.0000 0.36385  0.58155  0.34923  Biso   1.000  C
  H26      1.0000 0.26996  0.46101  0.31982  Biso   1.000  H
  H27      1.0000 0.46394  0.66972  0.38377  Biso   1.000  H
  C31      1.0000 0.08878  0.74643  0.46264  Biso   1.000  C
  H28      1.0000 0.99718  0.64442  0.49645  Biso   1.000  H
  H29      1.0000 0.20654  0.83723  0.43193  Biso   1.000  H
  C32      1.0000 0.65762  0.91122  0.46264  Biso   1.000  C
  H30      1.0000 0.64716  0.00276  0.49645  Biso   1.000  H
  H31      1.0000 0.63072  0.79348  0.43193  Biso   1.000  H
  C33      1.0000 0.33341  0.66667  0.33769  Biso   1.000  C
  O3       1.0000 0.01861  0.77848  0.45085  Biso   1.000  O
  O4       1.0000 0.75987  0.98142  0.45085  Biso   1.000  O
  C34      1.0000 0.21765  0.63610  0.34923  Biso   1.000  C
  C35      1.0000 0.41851  0.78235  0.34923  Biso   1.000  C
  C36      1.0000 0.33341  0.66667  0.30221  Biso   1.000  C
  C37      1.0000 0.91951  0.74840  0.46700  Biso   1.000  C
  C38      1.0000 0.82887  0.08046  0.46700  Biso   1.000  C
  C39      1.0000 0.15964  0.68150  0.33611  Biso   1.000  C
  C40      1.0000 0.16867  0.56697  0.37406  Biso   1.000  C
  C41      1.0000 0.52186  0.84036  0.33611  Biso   1.000  C
  C42      1.0000 0.39824  0.83130  0.37406  Biso   1.000  C
  H32      1.0000 0.32378  0.72591  0.29490  Biso   1.000  H
  H33      1.0000 0.27410  0.59787  0.29490  Biso   1.000  H
  H34      1.0000 0.40219  0.67623  0.29490  Biso   1.000  H
  C43      1.0000 0.85269  0.78301  0.44767  Biso   1.000  C
  H35      1.0000 0.93600  0.78524  0.48665  Biso   1.000  H
  H36      1.0000 0.87876  0.66947  0.47040  Biso   1.000  H
  C44      1.0000 0.93029  0.14728  0.44767  Biso   1.000  C
  H37      1.0000 0.84917  0.06398  0.48665  Biso   1.000  H
  H38      1.0000 0.79071  0.12117  0.47040  Biso   1.000  H
  C45      1.0000 0.05653  0.65752  0.34639  Biso   1.000  C
  H39      1.0000 0.19105  0.73003  0.31982  Biso   1.000  H
  C46      1.0000 0.06646  0.54266  0.38468  Biso   1.000  C
  H40      1.0000 0.20581  0.53607  0.38377  Biso   1.000  H
  H41      1.0000 0.53899  0.80897  0.31982  Biso   1.000  H
  C47      1.0000 0.60095  0.94344  0.34639  Biso   1.000  C
  C48      1.0000 0.47619  0.93355  0.38468  Biso   1.000  C
  H42      1.0000 0.33025  0.79422  0.38377  Biso   1.000  H
  C49      1.0000 0.82443  0.72863  0.41642  Biso   1.000  C
  H43      1.0000 0.89390  0.86244  0.44507  Biso   1.000  H
  H44      1.0000 0.78490  0.76447  0.45836  Biso   1.000  H
  C50      1.0000 0.90421  0.17563  0.41642  Biso   1.000  C
  H45      1.0000 0.96849  0.10609  0.44507  Biso   1.000  H
  H46      1.0000 0.97960  0.21510  0.45836  Biso   1.000  H
  C51      1.0000 0.00902  0.58691  0.37070  Biso   1.000  C
  H47      1.0000 0.01943  0.68891  0.33689  Biso   1.000  H
  H48      1.0000 0.03598  0.49611  0.40141  Biso   1.000  H
  H49      1.0000 0.66944  0.98051  0.33689  Biso   1.000  H
  C52      1.0000 0.57787  0.99090  0.37070  Biso   1.000  C
  H50      1.0000 0.46018  0.96404  0.40141  Biso   1.000  H
  C53      1.0000 0.76246  0.60471  0.41692  Biso   1.000  C
  H51      1.0000 0.78060  0.75343  0.40545  Biso   1.000  H
  H52      1.0000 0.89234  0.75343  0.40506  Biso   1.000  H
  C54      1.0000 0.84225  0.23751  0.41692  Biso   1.000  C
  H53      1.0000 0.97276  0.21938  0.40545  Biso   1.000  H
  H54      1.0000 0.86113  0.10773  0.40506  Biso   1.000  H
  O5       1.0000 0.90680  0.55486  0.38249  Biso   1.000  O
  O6       1.0000 0.64805  0.09315  0.38249  Biso   1.000  O
  C55      1.0000 0.73634  0.55032  0.38564  Biso   1.000  C
  H55      1.0000 0.69383  0.57990  0.42786  Biso   1.000  H
  H56      1.0000 0.80558  0.57990  0.42827  Biso   1.000  H
  C56      1.0000 0.81399  0.26363  0.38564  Biso   1.000  C
  H57      1.0000 0.88605  0.30614  0.42786  Biso   1.000  H
  H58      1.0000 0.77439  0.19442  0.42827  Biso   1.000  H
  C57      1.0000 0.83778  0.58493  0.36634  Biso   1.000  C
  C58      1.0000 0.74715  0.16220  0.36634  Biso   1.000  C
  H59      1.0000 0.69813  0.47089  0.38827  Biso   1.000  H
  H60      1.0000 0.68710  0.56886  0.37497  Biso   1.000  H
  H61      1.0000 0.77281  0.30186  0.38827  Biso   1.000  H
  H62      1.0000 0.88173  0.31290  0.37497  Biso   1.000  H
  H63      1.0000 0.81743  0.54810  0.34669  Biso   1.000  H
  H64      1.0000 0.87596  0.66387  0.36293  Biso   1.000  H
  H65      1.0000 0.73071  0.18255  0.34669  Biso   1.000  H
  H66      1.0000 0.78787  0.12405  0.36293  Biso   1.000  H
  O7       1.0000 0.24015  0.01862  0.54915  Biso   1.000  O
  C59      1.0000 0.34240  0.08882  0.53736  Biso   1.000  C
  C60      1.0000 0.17111  0.91950  0.53300  Biso   1.000  C
  C61      1.0000 0.38991  0.06567  0.51306  Biso   1.000  C
  C62      1.0000 0.39980  0.19050  0.55135  Biso   1.000  C
  C63      1.0000 0.06969  0.85268  0.55233  Biso   1.000  C
  H67      1.0000 0.15081  0.93598  0.51335  Biso   1.000  H
  H68      1.0000 0.20927  0.87880  0.52960  Biso   1.000  H
  C64      1.0000 0.49296  0.14477  0.50278  Biso   1.000  C
  H69      1.0000 0.35282  0.99720  0.50355  Biso   1.000  H
  C65      1.0000 0.50196  0.26836  0.54072  Biso   1.000  C
  H70      1.0000 0.36926  0.20648  0.56807  Biso   1.000  H
  C66      1.0000 0.09581  0.82441  0.58358  Biso   1.000  C
  H71      1.0000 0.03150  0.89387  0.55493  Biso   1.000  H
  H72      1.0000 0.02038  0.78486  0.54164  Biso   1.000  H
  C67      1.0000 0.55102  0.24818  0.51589  Biso   1.000  C
  H73      1.0000 0.52440  0.12771  0.48649  Biso   1.000  H
  H74      1.0000 0.53913  0.33642  0.55043  Biso   1.000  H
  C68      1.0000 0.15774  0.76245  0.58308  Biso   1.000  C
  H75      1.0000 0.02722  0.78058  0.59455  Biso   1.000  H
  H76      1.0000 0.13889  0.89231  0.59494  Biso   1.000  H
  C69      1.0000 0.66672  0.33329  0.50435  Biso   1.000  C
  C70      1.0000 0.18599  0.73633  0.61436  Biso   1.000  C
  H77      1.0000 0.11397  0.69390  0.57214  Biso   1.000  H
  H78      1.0000 0.22559  0.80554  0.57173  Biso   1.000  H
  C71      1.0000 0.66672  0.33329  0.46887  Biso   1.000  C
  C72      1.0000 0.69716  0.44898  0.51589  Biso   1.000  C
  C73      1.0000 0.75180  0.30281  0.51589  Biso   1.000  C
  C74      1.0000 0.25283  0.83776  0.63366  Biso   1.000  C
  H79      1.0000 0.22721  0.69818  0.61173  Biso   1.000  H
  H80      1.0000 0.11825  0.68706  0.62503  Biso   1.000  H
  H81      1.0000 0.60739  0.34293  0.46156  Biso   1.000  H
  H82      1.0000 0.73548  0.39262  0.46156  Biso   1.000  H
  H83      1.0000 0.65708  0.26449  0.46156  Biso   1.000  H
  C75      1.0000 0.65181  0.50698  0.50278  Biso   1.000  C
  C76      1.0000 0.76641  0.49800  0.54072  Biso   1.000  C
  C77      1.0000 0.85521  0.34821  0.50278  Biso   1.000  C
  C78      1.0000 0.73161  0.23359  0.54072  Biso   1.000  C
  O8       1.0000 0.35193  0.90681  0.61751  Biso   1.000  O
  H84      1.0000 0.26931  0.81749  0.65331  Biso   1.000  H
  H85      1.0000 0.21215  0.87599  0.63707  Biso   1.000  H
  H86      1.0000 0.60329  0.47559  0.48649  Biso   1.000  H
  C79      1.0000 0.67580  0.61006  0.51306  Biso   1.000  C
  C80      1.0000 0.79067  0.60017  0.55135  Biso   1.000  C
  H87      1.0000 0.79732  0.46092  0.55043  Biso   1.000  H
  H88      1.0000 0.87234  0.39674  0.48649  Biso   1.000  H
  C81      1.0000 0.93434  0.32423  0.51306  Biso   1.000  C
  C82      1.0000 0.80951  0.20929  0.55135  Biso   1.000  C
  H89      1.0000 0.66357  0.20269  0.55043  Biso   1.000  H
  C83      1.0000 0.42211  0.00906  0.62930  Biso   1.000  C
  H90      1.0000 0.64443  0.64722  0.50355  Biso   1.000  H
  C84      1.0000 0.74638  0.65760  0.53736  Biso   1.000  C
  H91      1.0000 0.83717  0.63066  0.56807  Biso   1.000  H
  C85      1.0000 0.91124  0.25362  0.53736  Biso   1.000  C
  H92      1.0000 0.00284  0.35562  0.50355  Biso   1.000  H
  H93      1.0000 0.79348  0.16281  0.56807  Biso   1.000  H
  C86      1.0000 0.39908  0.05661  0.65361  Biso   1.000  C
  C87      1.0000 0.52383  0.06649  0.61532  Biso   1.000  C
  O9       1.0000 0.77846  0.75986  0.54915  Biso   1.000  O
  O10      1.0000 0.98141  0.22156  0.54915  Biso   1.000  O
  C88      1.0000 0.47816  0.15968  0.66389  Biso   1.000  C
  H94      1.0000 0.33054  0.01945  0.66311  Biso   1.000  H
  H95      1.0000 0.53984  0.03601  0.59859  Biso   1.000  H
  C89      1.0000 0.60174  0.16867  0.62594  Biso   1.000  C
  C90      1.0000 0.74840  0.82891  0.53300  Biso   1.000  C
  C91      1.0000 0.08051  0.25164  0.53300  Biso   1.000  C
  C92      1.0000 0.58152  0.21769  0.65077  Biso   1.000  C
  H96      1.0000 0.46103  0.19108  0.68018  Biso   1.000  H
  H97      1.0000 0.66973  0.20574  0.61623  Biso   1.000  H
  H98      1.0000 0.78516  0.84918  0.51335  Biso   1.000  H
  H99      1.0000 0.66949  0.79067  0.52960  Biso   1.000  H
  C93      1.0000 0.78299  0.93034  0.55233  Biso   1.000  C
  H100     1.0000 0.06402  0.21481  0.51335  Biso   1.000  H
  H101     1.0000 0.12122  0.33049  0.52960  Biso   1.000  H
  C94      1.0000 0.14733  0.21703  0.55233  Biso   1.000  C
  C95      1.0000 0.66662  0.33338  0.66231  Biso   1.000  C
  H102     1.0000 0.86236  0.96849  0.55493  Biso   1.000  H
  H103     1.0000 0.76453  0.97961  0.54164  Biso   1.000  H
  C96      1.0000 0.72862  0.90422  0.58358  Biso   1.000  C
  H104     1.0000 0.10612  0.13760  0.55493  Biso   1.000  H
  H105     1.0000 0.21508  0.23549  0.54164  Biso   1.000  H
  C97      1.0000 0.17560  0.27141  0.58358  Biso   1.000  C
  C98      1.0000 0.63618  0.41849  0.65077  Biso   1.000  C
  C99      1.0000 0.78233  0.36386  0.65077  Biso   1.000  C
  C100     1.0000 0.66662  0.33338  0.69779  Biso   1.000  C
  H106     1.0000 0.75340  0.97277  0.59455  Biso   1.000  H
  H107     1.0000 0.75338  0.86112  0.59494  Biso   1.000  H
  C101     1.0000 0.60473  0.84225  0.58308  Biso   1.000  C
  C102     1.0000 0.23752  0.39525  0.58308  Biso   1.000  C
  H108     1.0000 0.21942  0.24661  0.59455  Biso   1.000  H
  H109     1.0000 0.10768  0.24661  0.59494  Biso   1.000  H
  C103     1.0000 0.68153  0.52190  0.66389  Biso   1.000  C
  C104     1.0000 0.56693  0.39830  0.62594  Biso   1.000  C
  C105     1.0000 0.84034  0.31846  0.66389  Biso   1.000  C
  C106     1.0000 0.83135  0.43307  0.62594  Biso   1.000  C
  H110     1.0000 0.67620  0.27405  0.70510  Biso   1.000  H
  H111     1.0000 0.72592  0.40218  0.70510  Biso   1.000  H
  H112     1.0000 0.59779  0.32373  0.70510  Biso   1.000  H
  C107     1.0000 0.55035  0.81399  0.61436  Biso   1.000  C
  H113     1.0000 0.57998  0.88609  0.57214  Biso   1.000  H
  H114     1.0000 0.57992  0.77436  0.57173  Biso   1.000  H
  C108     1.0000 0.26364  0.44964  0.61436  Biso   1.000  C
  H115     1.0000 0.30615  0.42006  0.57214  Biso   1.000  H
  H116     1.0000 0.19440  0.42006  0.57173  Biso   1.000  H
  C109     1.0000 0.65757  0.60100  0.65361  Biso   1.000  C
  H117     1.0000 0.73002  0.53895  0.68018  Biso   1.000  H
  C110     1.0000 0.54264  0.47617  0.61532  Biso   1.000  C
  H118     1.0000 0.53604  0.33024  0.61623  Biso   1.000  H
  C111     1.0000 0.94345  0.34244  0.65361  Biso   1.000  C
  H119     1.0000 0.80893  0.26993  0.68018  Biso   1.000  H
  C112     1.0000 0.93356  0.45738  0.61532  Biso   1.000  C
  H120     1.0000 0.79421  0.46397  0.61623  Biso   1.000  H
  C113     1.0000 0.58494  0.74717  0.63366  Biso   1.000  C
  H121     1.0000 0.47096  0.77279  0.61173  Biso   1.000  H
  H122     1.0000 0.56885  0.88180  0.62503  Biso   1.000  H
  C114     1.0000 0.16220  0.41503  0.63366  Biso   1.000  C
  H123     1.0000 0.30185  0.52907  0.61173  Biso   1.000  H
  H124     1.0000 0.31292  0.43118  0.62503  Biso   1.000  H
  C115     1.0000 0.58691  0.57784  0.62930  Biso   1.000  C
  H125     1.0000 0.68895  0.66947  0.66311  Biso   1.000  H
  H126     1.0000 0.49611  0.46018  0.59859  Biso   1.000  H
  C116     1.0000 0.99096  0.41305  0.62930  Biso   1.000  C
  H127     1.0000 0.98055  0.31105  0.66311  Biso   1.000  H
  H128     1.0000 0.96400  0.50385  0.59859  Biso   1.000  H
  O11      1.0000 0.55486  0.64805  0.61751  Biso   1.000  O
  H129     1.0000 0.54816  0.73069  0.65331  Biso   1.000  H
  H130     1.0000 0.66381  0.78787  0.63707  Biso   1.000  H
  O12      1.0000 0.09318  0.44510  0.61751  Biso   1.000  O
  H131     1.0000 0.18255  0.45186  0.65331  Biso   1.000  H
  H132     1.0000 0.12406  0.33618  0.63707  Biso   1.000  H
  C117     1.0000 0.00007  0.00000  0.63556  Biso   1.000  C
  C118     1.0000 0.00007  0.00000  0.67104  Biso   1.000  C
  H133     1.0000 0.94077  0.93120  0.62825  Biso   1.000  H
  H134     1.0000 0.99045  0.05924  0.62825  Biso   1.000  H
  H135     1.0000 0.99049  0.05933  0.62825  Biso   1.000  H
  H136     1.0000 0.06886  0.00956  0.62825  Biso   1.000  H
  H137     1.0000 0.06890  0.00964  0.62825  Biso   1.000  H
  C119     1.0000 0.08517  0.11568  0.68255  Biso   1.000  C
  C120     1.0000 0.88432  0.96943  0.68255  Biso   1.000  C
  C121     1.0000 0.88436  0.96951  0.68255  Biso   1.000  C
  C122     1.0000 0.03051  0.91488  0.68255  Biso   1.000  C
  C123     1.0000 0.18853  0.17369  0.66944  Biso   1.000  C
  C124     1.0000 0.06490  0.16463  0.70739  Biso   1.000  C
  C125     1.0000 0.06494  0.16471  0.70739  Biso   1.000  C
  C126     1.0000 0.83534  0.90030  0.70739  Biso   1.000  C
  C127     1.0000 0.82631  0.01483  0.66944  Biso   1.000  C
  C128     1.0000 0.82635  0.01491  0.66944  Biso   1.000  C
  C129     1.0000 0.98516  0.81148  0.66944  Biso   1.000  C
  C130     1.0000 0.09976  0.93507  0.70739  Biso   1.000  C
  H138     1.0000 0.20566  0.14230  0.65315  Biso   1.000  H
  C131     1.0000 0.26761  0.27677  0.67972  Biso   1.000  C
  C132     1.0000 0.14286  0.26688  0.71801  Biso   1.000  C
  H139     1.0000 0.99695  0.12763  0.71710  Biso   1.000  H
  C133     1.0000 0.73313  0.87599  0.71801  Biso   1.000  C
  H140     1.0000 0.87248  0.86940  0.71710  Biso   1.000  H
  C134     1.0000 0.72320  0.99085  0.67972  Biso   1.000  C
  C135     1.0000 0.72324  0.99094  0.67972  Biso   1.000  C
  H141     1.0000 0.85771  0.06336  0.65315  Biso   1.000  H
  H142     1.0000 0.85775  0.06345  0.65315  Biso   1.000  H
  H143     1.0000 0.93667  0.79442  0.65315  Biso   1.000  H
  C136     1.0000 0.00912  0.73238  0.67972  Biso   1.000  C
  C137     1.0000 0.12405  0.85721  0.71801  Biso   1.000  C
  H144     1.0000 0.13061  0.00305  0.71710  Biso   1.000  H
  H145     1.0000 0.13065  0.00313  0.71710  Biso   1.000  H
  H146     1.0000 0.33614  0.31393  0.67022  Biso   1.000  H
  C138     1.0000 0.24457  0.32431  0.70403  Biso   1.000  C
  H147     1.0000 0.12685  0.29737  0.73473  Biso   1.000  H
  C139     1.0000 0.67569  0.92024  0.70403  Biso   1.000  C
  C140     1.0000 0.67573  0.92032  0.70403  Biso   1.000  C
  H148     1.0000 0.70269  0.82952  0.73473  Biso   1.000  H
  H149     1.0000 0.68609  0.02225  0.67022  Biso   1.000  H
  H150     1.0000 0.68613  0.02233  0.67022  Biso   1.000  H
  H151     1.0000 0.97774  0.66391  0.67022  Biso   1.000  H
  C141     1.0000 0.07978  0.75553  0.70403  Biso   1.000  C
  H152     1.0000 0.17058  0.87319  0.73473  Biso   1.000  H
  O13      1.0000 0.31475  0.42657  0.71582  Biso   1.000  O
  O14      1.0000 0.57351  0.88827  0.71582  Biso   1.000  O
  O15      1.0000 0.11182  0.68533  0.71582  Biso   1.000  O
  C142     1.0000 0.41385  0.49561  0.69969  Biso   1.000  C
  C143     1.0000 0.50444  0.91826  0.69969  Biso   1.000  C
  C144     1.0000 0.50448  0.91835  0.69969  Biso   1.000  C
  C145     1.0000 0.08174  0.58621  0.69969  Biso   1.000  C
  H153     1.0000 0.39737  0.51588  0.68002  Biso   1.000  H
  H154     1.0000 0.45454  0.45738  0.69626  Biso   1.000  H
  C146     1.0000 0.48066  0.59696  0.71899  Biso   1.000  C
  C147     1.0000 0.48070  0.59704  0.71899  Biso   1.000  C
  H155     1.0000 0.48410  0.88143  0.68002  Biso   1.000  H
  H156     1.0000 0.54263  0.99720  0.69626  Biso   1.000  H
  C148     1.0000 0.40305  0.88374  0.71899  Biso   1.000  C
  H157     1.0000 0.48414  0.88151  0.68002  Biso   1.000  H
  H158     1.0000 0.11853  0.60269  0.68002  Biso   1.000  H
  H159     1.0000 0.00288  0.54550  0.69626  Biso   1.000  H
  C149     1.0000 0.11633  0.51938  0.71899  Biso   1.000  C
  H160     1.0000 0.43947  0.63519  0.72160  Biso   1.000  H
  H161     1.0000 0.54839  0.64623  0.70830  Biso   1.000  H
  C150     1.0000 0.50891  0.57084  0.75025  Biso   1.000  C
  H162     1.0000 0.54843  0.64632  0.70830  Biso   1.000  H
  C151     1.0000 0.50895  0.57092  0.75025  Biso   1.000  C
  C152     1.0000 0.42913  0.93804  0.75025  Biso   1.000  C
  H163     1.0000 0.35377  0.90220  0.70830  Biso   1.000  H
  C153     1.0000 0.42917  0.93812  0.75025  Biso   1.000  C
  H164     1.0000 0.36483  0.80431  0.72160  Biso   1.000  H
  H165     1.0000 0.19573  0.56058  0.72160  Biso   1.000  H
  H166     1.0000 0.09784  0.45157  0.70830  Biso   1.000  H
  C154     1.0000 0.06196  0.49112  0.75025  Biso   1.000  C
  C155     1.0000 0.57088  0.50896  0.74974  Biso   1.000  C
  H167     1.0000 0.55272  0.63948  0.76121  Biso   1.000  H
  H168     1.0000 0.44110  0.52783  0.76160  Biso   1.000  H
  H169     1.0000 0.36054  0.91332  0.76121  Biso   1.000  H
  H170     1.0000 0.47229  0.91332  0.76160  Biso   1.000  H
  C156     1.0000 0.49109  0.06196  0.74974  Biso   1.000  C
  C157     1.0000 0.93807  0.42916  0.74974  Biso   1.000  C
  H171     1.0000 0.08671  0.44729  0.76121  Biso   1.000  H
  H172     1.0000 0.08677  0.55902  0.76160  Biso   1.000  H
  H173     1.0000 0.52780  0.44107  0.73841  Biso   1.000  H
  C158     1.0000 0.59699  0.48070  0.78102  Biso   1.000  C
  H174     1.0000 0.63946  0.55280  0.73880  Biso   1.000  H
  C159     1.0000 0.51935  0.11634  0.78102  Biso   1.000  C
  H175     1.0000 0.44726  0.08676  0.73880  Biso   1.000  H
  H176     1.0000 0.55901  0.08676  0.73841  Biso   1.000  H
  C160     1.0000 0.88369  0.40304  0.78102  Biso   1.000  C
  H177     1.0000 0.91324  0.36052  0.73880  Biso   1.000  H
  H178     1.0000 0.91331  0.47225  0.73841  Biso   1.000  H
  H179     1.0000 0.91328  0.36061  0.73880  Biso   1.000  H
  H180     1.0000 0.64627  0.54843  0.79171  Biso   1.000  H
  C161     1.0000 0.49558  0.41388  0.80032  Biso   1.000  C
  H181     1.0000 0.63519  0.43950  0.77839  Biso   1.000  H
  H182     1.0000 0.64631  0.54851  0.79171  Biso   1.000  H
  C162     1.0000 0.58618  0.08174  0.80032  Biso   1.000  C
  H183     1.0000 0.56057  0.19577  0.77839  Biso   1.000  H
  H184     1.0000 0.45161  0.09789  0.79171  Biso   1.000  H
  C163     1.0000 0.91828  0.50447  0.80032  Biso   1.000  C
  H185     1.0000 0.90216  0.35377  0.79171  Biso   1.000  H
  H186     1.0000 0.80432  0.36489  0.77839  Biso   1.000  H
  O16      1.0000 0.42654  0.31475  0.78417  Biso   1.000  O
  H187     1.0000 0.51584  0.39731  0.81997  Biso   1.000  H
  H188     1.0000 0.45738  0.45450  0.80375  Biso   1.000  H
  H189     1.0000 0.51588  0.39740  0.81997  Biso   1.000  H
  H190     1.0000 0.45742  0.45458  0.80375  Biso   1.000  H
  O17      1.0000 0.68528  0.11181  0.78417  Biso   1.000  O
  H191     1.0000 0.60267  0.11857  0.81997  Biso   1.000  H
  H192     1.0000 0.54543  0.00280  0.80375  Biso   1.000  H
  H193     1.0000 0.54547  0.00288  0.80375  Biso   1.000  H
  O18      1.0000 0.88823  0.57352  0.78417  Biso   1.000  O
  H194     1.0000 0.88149  0.48412  0.81997  Biso   1.000  H
  H195     1.0000 0.99715  0.54262  0.80375  Biso   1.000  H
  H196     1.0000 0.88153  0.48420  0.81997  Biso   1.000  H
  H197     1.0000 0.99720  0.54270  0.80375  Biso   1.000  H
  C164     1.0000 0.32429  0.24455  0.79598  Biso   1.000  C
  C165     1.0000 0.75545  0.07976  0.79598  Biso   1.000  C
  C166     1.0000 0.92030  0.67577  0.79598  Biso   1.000  C
  C167     1.0000 0.27678  0.26771  0.82029  Biso   1.000  C
  C168     1.0000 0.26688  0.14288  0.78198  Biso   1.000  C
  C169     1.0000 0.73235  0.00915  0.82029  Biso   1.000  C
  C170     1.0000 0.85714  0.12401  0.78198  Biso   1.000  C
  C171     1.0000 0.85718  0.12409  0.78198  Biso   1.000  C
  C172     1.0000 0.99088  0.72331  0.82029  Biso   1.000  C
  C173     1.0000 0.87602  0.73320  0.78198  Biso   1.000  C
  C174     1.0000 0.17368  0.18852  0.83055  Biso   1.000  C
  H198     1.0000 0.31383  0.33609  0.82977  Biso   1.000  H
  C175     1.0000 0.17372  0.18860  0.83055  Biso   1.000  C
  H199     1.0000 0.31387  0.33618  0.82977  Biso   1.000  H
  C176     1.0000 0.16469  0.06493  0.79260  Biso   1.000  C
  H200     1.0000 0.29738  0.12681  0.76526  Biso   1.000  H
  C177     1.0000 0.16473  0.06501  0.79260  Biso   1.000  C
  H201     1.0000 0.29743  0.12689  0.76526  Biso   1.000  H
  C178     1.0000 0.81148  0.98517  0.83055  Biso   1.000  C
  H202     1.0000 0.66384  0.97775  0.82977  Biso   1.000  H
  H203     1.0000 0.87321  0.17056  0.76526  Biso   1.000  H
  C179     1.0000 0.93504  0.09970  0.79260  Biso   1.000  C
  C180     1.0000 0.93508  0.09978  0.79260  Biso   1.000  C
  H204     1.0000 0.02225  0.68615  0.82977  Biso   1.000  H
  C181     1.0000 0.01488  0.82639  0.83055  Biso   1.000  C
  H205     1.0000 0.82948  0.70263  0.76526  Biso   1.000  H
  C182     1.0000 0.90028  0.83537  0.79260  Biso   1.000  C
  H206     1.0000 0.14229  0.20566  0.84686  Biso   1.000  H
  C183     1.0000 0.11563  0.08512  0.81744  Biso   1.000  C
  C184     1.0000 0.11567  0.08520  0.81744  Biso   1.000  C
  H207     1.0000 0.12756  0.99695  0.78289  Biso   1.000  H
  C185     1.0000 0.91488  0.03057  0.81744  Biso   1.000  C
  H208     1.0000 0.79435  0.93664  0.84686  Biso   1.000  H
  H209     1.0000 0.00308  0.13060  0.78289  Biso   1.000  H
  H210     1.0000 0.00312  0.13068  0.78289  Biso   1.000  H
  C186     1.0000 0.96953  0.88440  0.81744  Biso   1.000  C
  H211     1.0000 0.06336  0.85770  0.84686  Biso   1.000  H
  H212     1.0000 0.06340  0.85778  0.84686  Biso   1.000  H
  H213     1.0000 0.86936  0.87245  0.78289  Biso   1.000  H
  C187     1.0000 0.99993  0.00000  0.82897  Biso   1.000  C
  C188     1.0000 0.99997  0.00008  0.82897  Biso   1.000  C
  C189     1.0000 0.99993  0.00000  0.86445  Biso   1.000  C
  C190     1.0000 0.99997  0.00008  0.86445  Biso   1.000  C
  H214     1.0000 0.93120  0.94076  0.87176  Biso   1.000  H
  H215     1.0000 0.05930  0.99044  0.87176  Biso   1.000  H
  H216     1.0000 0.00957  0.06880  0.87176  Biso   1.000  H
  H217     1.0000 0.00961  0.06888  0.87176  Biso   1.000  H
  C191     1.0000 0.99997  0.00008  0.36444  Biso   1.000  C
  C192     1.0000 0.99993  0.00000  0.32896  Biso   1.000  C
  C193     1.0000 0.99997  0.00008  0.32896  Biso   1.000  C
  H218     1.0000 0.93114  0.99044  0.37175  Biso   1.000  H
  H219     1.0000 0.00955  0.94076  0.37175  Biso   1.000  H
  H220     1.0000 0.05923  0.06880  0.37175  Biso   1.000  H
  H221     1.0000 0.05927  0.06888  0.37175  Biso   1.000  H
  C194     1.0000 0.96949  0.08512  0.31745  Biso   1.000  C
  C195     1.0000 0.96953  0.08520  0.31745  Biso   1.000  C
  C196     1.0000 0.11568  0.03057  0.31745  Biso   1.000  C
  C197     1.0000 0.91487  0.88440  0.31745  Biso   1.000  C
  C198     1.0000 0.99993  0.00000  0.36444  Biso   1.000  C
  C199     1.0000 0.01484  0.18852  0.33056  Biso   1.000  C
  C200     1.0000 0.01488  0.18860  0.33056  Biso   1.000  C
  C201     1.0000 0.90024  0.06493  0.29261  Biso   1.000  C
  C202     1.0000 0.90028  0.06501  0.29261  Biso   1.000  C
  C203     1.0000 0.17369  0.98517  0.33056  Biso   1.000  C
  C204     1.0000 0.16466  0.09970  0.29261  Biso   1.000  C
  C205     1.0000 0.16470  0.09978  0.29261  Biso   1.000  C
  C206     1.0000 0.93510  0.83537  0.29261  Biso   1.000  C
  C207     1.0000 0.81151  0.82639  0.33056  Biso   1.000  C
  C208     1.0000 0.99092  0.26771  0.32028  Biso   1.000  C
  H222     1.0000 0.06337  0.20566  0.34685  Biso   1.000  H
  C209     1.0000 0.87599  0.14288  0.28199  Biso   1.000  C
  H223     1.0000 0.86939  0.99695  0.28290  Biso   1.000  H
  C210     1.0000 0.27680  0.00915  0.32028  Biso   1.000  C
  H224     1.0000 0.14229  0.93664  0.34685  Biso   1.000  H
  C211     1.0000 0.26687  0.12401  0.28199  Biso   1.000  C
  H225     1.0000 0.12752  0.13060  0.28290  Biso   1.000  H
  C212     1.0000 0.26691  0.12409  0.28199  Biso   1.000  C
  H226     1.0000 0.12756  0.13068  0.28290  Biso   1.000  H
  H227     1.0000 0.79434  0.85770  0.34685  Biso   1.000  H
  H228     1.0000 0.79438  0.85778  0.34685  Biso   1.000  H
  C213     1.0000 0.73243  0.72331  0.32028  Biso   1.000  C
  C214     1.0000 0.85718  0.73320  0.28199  Biso   1.000  C
  H229     1.0000 0.00309  0.87245  0.28290  Biso   1.000  H
  C215     1.0000 0.92026  0.24455  0.29597  Biso   1.000  C
  H230     1.0000 0.02226  0.33609  0.32978  Biso   1.000  H
  H231     1.0000 0.02231  0.33618  0.32978  Biso   1.000  H
  H232     1.0000 0.82942  0.12681  0.26527  Biso   1.000  H
  H233     1.0000 0.82946  0.12689  0.26527  Biso   1.000  H
  C216     1.0000 0.32431  0.07976  0.29597  Biso   1.000  C
  H234     1.0000 0.31391  0.97775  0.32978  Biso   1.000  H
  H235     1.0000 0.29735  0.17056  0.26527  Biso   1.000  H
  C217     1.0000 0.75547  0.67577  0.29597  Biso   1.000  C
  H236     1.0000 0.66390  0.68615  0.32978  Biso   1.000  H
  H237     1.0000 0.87315  0.70263  0.26527  Biso   1.000  H
  O19      1.0000 0.88822  0.31475  0.28418  Biso   1.000  O
  O20      1.0000 0.42654  0.11181  0.28418  Biso   1.000  O
  O21      1.0000 0.68529  0.57352  0.28418  Biso   1.000  O
  C218     1.0000 0.91830  0.41388  0.30031  Biso   1.000  C
  C219     1.0000 0.49556  0.08174  0.30031  Biso   1.000  C
  C220     1.0000 0.58619  0.50447  0.30031  Biso   1.000  C
  C221     1.0000 0.88371  0.48070  0.28101  Biso   1.000  C
  H238     1.0000 0.88147  0.39731  0.31998  Biso   1.000  H
  H239     1.0000 0.99712  0.45450  0.30374  Biso   1.000  H
  H240     1.0000 0.88152  0.39740  0.31998  Biso   1.000  H
  H241     1.0000 0.99716  0.45458  0.30374  Biso   1.000  H
  C222     1.0000 0.59699  0.11634  0.28101  Biso   1.000  C
  H242     1.0000 0.51590  0.11857  0.31998  Biso   1.000  H
  H243     1.0000 0.45737  0.00280  0.30374  Biso   1.000  H
  H244     1.0000 0.45741  0.00288  0.30374  Biso   1.000  H
  C223     1.0000 0.51934  0.40304  0.28101  Biso   1.000  C
  H245     1.0000 0.60263  0.48412  0.31998  Biso   1.000  H
  H246     1.0000 0.54546  0.54262  0.30374  Biso   1.000  H
  H247     1.0000 0.60267  0.48420  0.31998  Biso   1.000  H
  H248     1.0000 0.54550  0.54270  0.30374  Biso   1.000  H
  C224     1.0000 0.93808  0.50896  0.24975  Biso   1.000  C
  H249     1.0000 0.90216  0.54843  0.29170  Biso   1.000  H
  H250     1.0000 0.80431  0.43950  0.27840  Biso   1.000  H
  H251     1.0000 0.90220  0.54851  0.29170  Biso   1.000  H
  C225     1.0000 0.57087  0.06196  0.24975  Biso   1.000  C
  H252     1.0000 0.63521  0.19577  0.27840  Biso   1.000  H
  H253     1.0000 0.64627  0.09789  0.29170  Biso   1.000  H
  C226     1.0000 0.49109  0.42916  0.24975  Biso   1.000  C
  H254     1.0000 0.45161  0.35377  0.29170  Biso   1.000  H
  H255     1.0000 0.56057  0.36489  0.27840  Biso   1.000  H
  C227     1.0000 0.06193  0.57084  0.25026  Biso   1.000  C
  C228     1.0000 0.06197  0.57092  0.25026  Biso   1.000  C
  H256     1.0000 0.91327  0.44107  0.23840  Biso   1.000  H
  H257     1.0000 0.91333  0.55280  0.23879  Biso   1.000  H
  C229     1.0000 0.50891  0.93804  0.25026  Biso   1.000  C
  C230     1.0000 0.50895  0.93812  0.25026  Biso   1.000  C
  H258     1.0000 0.63950  0.08676  0.23879  Biso   1.000  H
  H259     1.0000 0.52775  0.08676  0.23840  Biso   1.000  H
  C231     1.0000 0.42916  0.49112  0.25026  Biso   1.000  C
  H260     1.0000 0.44728  0.36052  0.23879  Biso   1.000  H
  H261     1.0000 0.55895  0.47225  0.23840  Biso   1.000  H
  H262     1.0000 0.44732  0.36061  0.23879  Biso   1.000  H
  C232     1.0000 0.11631  0.59696  0.21898  Biso   1.000  C
  C233     1.0000 0.11635  0.59704  0.21898  Biso   1.000  C
  H263     1.0000 0.08676  0.63948  0.26120  Biso   1.000  H
  H264     1.0000 0.08674  0.52783  0.26159  Biso   1.000  H
  C234     1.0000 0.48069  0.88374  0.21898  Biso   1.000  C
  H265     1.0000 0.55278  0.91332  0.26120  Biso   1.000  H
  H266     1.0000 0.44103  0.91332  0.26159  Biso   1.000  H
  C235     1.0000 0.40305  0.51938  0.21898  Biso   1.000  C
  H267     1.0000 0.36058  0.44729  0.26120  Biso   1.000  H
  H268     1.0000 0.47224  0.55902  0.26159  Biso   1.000  H
  C236     1.0000 0.08176  0.49561  0.19968  Biso   1.000  C
  H269     1.0000 0.19572  0.63519  0.22161  Biso   1.000  H
  H270     1.0000 0.09784  0.64623  0.20829  Biso   1.000  H
  H271     1.0000 0.09788  0.64632  0.20829  Biso   1.000  H
  C237     1.0000 0.41382  0.91826  0.19968  Biso   1.000  C
  C238     1.0000 0.41386  0.91835  0.19968  Biso   1.000  C
  H272     1.0000 0.54843  0.90220  0.20829  Biso   1.000  H
  H273     1.0000 0.43947  0.80431  0.22161  Biso   1.000  H
  C239     1.0000 0.50446  0.58621  0.19968  Biso   1.000  C
  H274     1.0000 0.36485  0.56058  0.22161  Biso   1.000  H
  H275     1.0000 0.35373  0.45157  0.20829  Biso   1.000  H
  O22      1.0000 0.11181  0.42657  0.21583  Biso   1.000  O
  H276     1.0000 0.11851  0.51588  0.18003  Biso   1.000  H
  H277     1.0000 0.00285  0.45738  0.19625  Biso   1.000  H
  O23      1.0000 0.31476  0.88827  0.21583  Biso   1.000  O
  H278     1.0000 0.39733  0.88143  0.18003  Biso   1.000  H
  H279     1.0000 0.45457  0.99720  0.19625  Biso   1.000  H
  H280     1.0000 0.39737  0.88151  0.18003  Biso   1.000  H
  O24      1.0000 0.57351  0.68533  0.21583  Biso   1.000  O
  H281     1.0000 0.48416  0.60269  0.18003  Biso   1.000  H
  H282     1.0000 0.54262  0.54550  0.19625  Biso   1.000  H
  C240     1.0000 0.07974  0.32431  0.20402  Biso   1.000  C
  C241     1.0000 0.24455  0.92024  0.20402  Biso   1.000  C
  C242     1.0000 0.24459  0.92032  0.20402  Biso   1.000  C
  C243     1.0000 0.67575  0.75553  0.20402  Biso   1.000  C
  C244     1.0000 0.12402  0.26688  0.21802  Biso   1.000  C
  C245     1.0000 0.00916  0.27677  0.17971  Biso   1.000  C
  C246     1.0000 0.14286  0.87599  0.21802  Biso   1.000  C
  C247     1.0000 0.26765  0.99085  0.17971  Biso   1.000  C
  C248     1.0000 0.26770  0.99094  0.17971  Biso   1.000  C
  C249     1.0000 0.72326  0.73238  0.17971  Biso   1.000  C
  C250     1.0000 0.73316  0.85721  0.21802  Biso   1.000  C
  H283     1.0000 0.17052  0.29737  0.23474  Biso   1.000  H
  C251     1.0000 0.09972  0.16463  0.20740  Biso   1.000  C
  C252     1.0000 0.09977  0.16471  0.20740  Biso   1.000  C
  C253     1.0000 0.98516  0.17369  0.16945  Biso   1.000  C
  H284     1.0000 0.97779  0.31393  0.17023  Biso   1.000  H
  C254     1.0000 0.06496  0.90030  0.20740  Biso   1.000  C
  H285     1.0000 0.12683  0.82952  0.23474  Biso   1.000  H
  C255     1.0000 0.18852  0.01483  0.16945  Biso   1.000  C
  C256     1.0000 0.18856  0.01491  0.16945  Biso   1.000  C
  H286     1.0000 0.33616  0.02225  0.17023  Biso   1.000  H
  H287     1.0000 0.33620  0.02233  0.17023  Biso   1.000  H
  C257     1.0000 0.82632  0.81148  0.16945  Biso   1.000  C
  H288     1.0000 0.68617  0.66391  0.17023  Biso   1.000  H
  C258     1.0000 0.83531  0.93507  0.20740  Biso   1.000  C
  H289     1.0000 0.70262  0.87319  0.23474  Biso   1.000  H
  C259     1.0000 0.03051  0.11568  0.18256  Biso   1.000  C
  H290     1.0000 0.13068  0.12763  0.21711  Biso   1.000  H
  H291     1.0000 0.93664  0.14230  0.15314  Biso   1.000  H
  C260     1.0000 0.08512  0.96943  0.18256  Biso   1.000  C
  C261     1.0000 0.08516  0.96951  0.18256  Biso   1.000  C
  H292     1.0000 0.99692  0.86940  0.21711  Biso   1.000  H
  H293     1.0000 0.20565  0.06336  0.15314  Biso   1.000  H
  H294     1.0000 0.20569  0.06345  0.15314  Biso   1.000  H
  C262     1.0000 0.88437  0.91488  0.18256  Biso   1.000  C
  H295     1.0000 0.85775  0.79442  0.15314  Biso   1.000  H
  H296     1.0000 0.87244  0.00305  0.21711  Biso   1.000  H
  H297     1.0000 0.87248  0.00313  0.21711  Biso   1.000  H
  C263     1.0000 0.00007  0.00000  0.17103  Biso   1.000  C
  C264     1.0000 0.00007  0.00000  0.13555  Biso   1.000  C
  H298     1.0000 0.99043  0.93120  0.12824  Biso   1.000  H
  H299     1.0000 0.94070  0.00956  0.12824  Biso   1.000  H
  H300     1.0000 0.94074  0.00964  0.12824  Biso   1.000  H
  H301     1.0000 0.06880  0.05924  0.12824  Biso   1.000  H
  H302     1.0000 0.06884  0.05933  0.12824  Biso   1.000  H
  C265     1.0000 0.33341  0.66667  0.80222  Biso   1.000  C
  C266     1.0000 0.33341  0.66667  0.83770  Biso   1.000  C
  H303     1.0000 0.27403  0.67623  0.79491  Biso   1.000  H
  H304     1.0000 0.40213  0.72591  0.79491  Biso   1.000  H
  H305     1.0000 0.32377  0.59787  0.79491  Biso   1.000  H
  C267     1.0000 0.36385  0.78235  0.84922  Biso   1.000  C
  C268     1.0000 0.41845  0.63610  0.84922  Biso   1.000  C
  C269     1.0000 0.21771  0.58155  0.84922  Biso   1.000  C
  C270     1.0000 0.31850  0.84036  0.83612  Biso   1.000  C
  C271     1.0000 0.43306  0.83130  0.87405  Biso   1.000  C
  C272     1.0000 0.52185  0.68150  0.83612  Biso   1.000  C
  C273     1.0000 0.39830  0.56697  0.87405  Biso   1.000  C
  C274     1.0000 0.15965  0.47815  0.83612  Biso   1.000  C
  C275     1.0000 0.16864  0.60174  0.87405  Biso   1.000  C
  C276     1.0000 0.34249  0.94344  0.84638  Biso   1.000  C
  H306     1.0000 0.26997  0.80897  0.81981  Biso   1.000  H
  C277     1.0000 0.45736  0.93355  0.88467  Biso   1.000  C
  H307     1.0000 0.46397  0.79422  0.88378  Biso   1.000  H
  H308     1.0000 0.53898  0.73003  0.81981  Biso   1.000  H
  C278     1.0000 0.60099  0.65752  0.84638  Biso   1.000  C
  C279     1.0000 0.47620  0.54266  0.88467  Biso   1.000  C
  H309     1.0000 0.33026  0.53607  0.88378  Biso   1.000  H
  H310     1.0000 0.19104  0.46101  0.81981  Biso   1.000  H
  C280     1.0000 0.05659  0.39904  0.84638  Biso   1.000  C
  C281     1.0000 0.06645  0.52379  0.88467  Biso   1.000  C
  H311     1.0000 0.20577  0.66972  0.88378  Biso   1.000  H
  C282     1.0000 0.41303  0.99090  0.87069  Biso   1.000  C
  H312     1.0000 0.31108  0.98051  0.83690  Biso   1.000  H
  H313     1.0000 0.50385  0.96404  0.90140  Biso   1.000  H
  H314     1.0000 0.66949  0.68891  0.83690  Biso   1.000  H
  C283     1.0000 0.57788  0.58691  0.87069  Biso   1.000  C
  H315     1.0000 0.46013  0.49611  0.90140  Biso   1.000  H
  H316     1.0000 0.01950  0.33057  0.83690  Biso   1.000  H
  C284     1.0000 0.00905  0.42212  0.87069  Biso   1.000  C
  H317     1.0000 0.03595  0.53986  0.90140  Biso   1.000  H
  O25      1.0000 0.44511  0.09315  0.88248  Biso   1.000  O
  O26      1.0000 0.64806  0.55486  0.88248  Biso   1.000  O
  O27      1.0000 0.90680  0.35191  0.88248  Biso   1.000  O
  C285     1.0000 0.41505  0.16220  0.86635  Biso   1.000  C
  C286     1.0000 0.74715  0.58493  0.86635  Biso   1.000  C
  C287     1.0000 0.83780  0.25287  0.86635  Biso   1.000  C
  C288     1.0000 0.44964  0.26363  0.88565  Biso   1.000  C
  H318     1.0000 0.45184  0.18255  0.84670  Biso   1.000  H
  H319     1.0000 0.33618  0.12405  0.86292  Biso   1.000  H
  H320     1.0000 0.73066  0.54810  0.84670  Biso   1.000  H
  H321     1.0000 0.78791  0.66387  0.86292  Biso   1.000  H
  C289     1.0000 0.81398  0.55032  0.88565  Biso   1.000  C
  H322     1.0000 0.81749  0.26935  0.84670  Biso   1.000  H
  H323     1.0000 0.87596  0.21217  0.86292  Biso   1.000  H
  C290     1.0000 0.73638  0.18605  0.88565  Biso   1.000  C
  C291     1.0000 0.39526  0.23751  0.91693  Biso   1.000  C
  H324     1.0000 0.52905  0.30186  0.88828  Biso   1.000  H
  H325     1.0000 0.43118  0.31290  0.87496  Biso   1.000  H
  H326     1.0000 0.77277  0.47089  0.88828  Biso   1.000  H
  H327     1.0000 0.88176  0.56886  0.87496  Biso   1.000  H
  C292     1.0000 0.84224  0.60471  0.91693  Biso   1.000  C
  H328     1.0000 0.69818  0.22725  0.88828  Biso   1.000  H
  H329     1.0000 0.68706  0.11824  0.87496  Biso   1.000  H
  C293     1.0000 0.76246  0.15771  0.91693  Biso   1.000  C
  C294     1.0000 0.27142  0.17563  0.91641  Biso   1.000  C
  H330     1.0000 0.42009  0.30614  0.92787  Biso   1.000  H
  H331     1.0000 0.42003  0.19442  0.92826  Biso   1.000  H
  C295     1.0000 0.90420  0.72863  0.91641  Biso   1.000  C
  H332     1.0000 0.88607  0.57990  0.92787  Biso   1.000  H
  H333     1.0000 0.77433  0.57990  0.92826  Biso   1.000  H
  C296     1.0000 0.82442  0.09583  0.91641  Biso   1.000  C
  H334     1.0000 0.69391  0.11395  0.92787  Biso   1.000  H
  H335     1.0000 0.80554  0.22560  0.92826  Biso   1.000  H
  C297     1.0000 0.21700  0.14728  0.94768  Biso   1.000  C
  H336     1.0000 0.24663  0.21938  0.90546  Biso   1.000  H
  H337     1.0000 0.24660  0.10773  0.90507  Biso   1.000  H
  C298     1.0000 0.93032  0.78301  0.94768  Biso   1.000  C
  H338     1.0000 0.97283  0.75343  0.90546  Biso   1.000  H
  H339     1.0000 0.86109  0.75343  0.90507  Biso   1.000  H
  C299     1.0000 0.85268  0.06971  0.94768  Biso   1.000  C
  H340     1.0000 0.78061  0.02719  0.90546  Biso   1.000  H
  H341     1.0000 0.89228  0.13892  0.90507  Biso   1.000  H
  C300     1.0000 0.25159  0.08046  0.96699  Biso   1.000  C
  H342     1.0000 0.13760  0.10609  0.94505  Biso   1.000  H
  H343     1.0000 0.23549  0.21510  0.95837  Biso   1.000  H
  C301     1.0000 0.82889  0.74840  0.96699  Biso   1.000  C
  H344     1.0000 0.96854  0.86244  0.94505  Biso   1.000  H
  H345     1.0000 0.97957  0.76447  0.95837  Biso   1.000  H
  C302     1.0000 0.91952  0.17114  0.96699  Biso   1.000  C
  H346     1.0000 0.89386  0.03148  0.94505  Biso   1.000  H
  H347     1.0000 0.78494  0.02043  0.95837  Biso   1.000  H
  O28      1.0000 0.22155  0.98142  0.95086  Biso   1.000  O
  H348     1.0000 0.21481  0.06398  0.98663  Biso   1.000  H
  H349     1.0000 0.33046  0.12117  0.97041  Biso   1.000  H
  O29      1.0000 0.75987  0.77848  0.95086  Biso   1.000  O
  H350     1.0000 0.84923  0.78524  0.98663  Biso   1.000  H
  H351     1.0000 0.79071  0.66947  0.97041  Biso   1.000  H
  O30      1.0000 0.01862  0.24018  0.95086  Biso   1.000  O
  H352     1.0000 0.93596  0.15079  0.98663  Biso   1.000  H
  H353     1.0000 0.87880  0.20929  0.97041  Biso   1.000  H
  C303     1.0000 0.25360  0.91122  0.96265  Biso   1.000  C
  C304     1.0000 0.65764  0.74643  0.96265  Biso   1.000  C
  C305     1.0000 0.08880  0.34244  0.96265  Biso   1.000  C
  C306     1.0000 0.32422  0.93429  0.98695  Biso   1.000  C
  C307     1.0000 0.20928  0.80946  0.94864  Biso   1.000  C
  C308     1.0000 0.61013  0.67581  0.98695  Biso   1.000  C
  C309     1.0000 0.60020  0.79067  0.94864  Biso   1.000  C
  C310     1.0000 0.06572  0.38990  0.98695  Biso   1.000  C
  C311     1.0000 0.19047  0.39979  0.94864  Biso   1.000  C
  C312     1.0000 0.34817  0.85519  0.99721  Biso   1.000  C
  H354     1.0000 0.35560  0.00276  0.99644  Biso   1.000  H
  H355     1.0000 0.16276  0.79348  0.93194  Biso   1.000  H
  C313     1.0000 0.23357  0.73160  0.95929  Biso   1.000  C
  C314     1.0000 0.50702  0.65184  0.99721  Biso   1.000  C
  H356     1.0000 0.64724  0.64442  0.99644  Biso   1.000  H
  H357     1.0000 0.63069  0.83723  0.93194  Biso   1.000  H
  C315     1.0000 0.49800  0.76637  0.95929  Biso   1.000  C
  C316     1.0000 0.14480  0.49298  0.99721  Biso   1.000  C
  H358     1.0000 0.99723  0.35282  0.99644  Biso   1.000  H
  C317     1.0000 0.26843  0.50204  0.95929  Biso   1.000  C
  H359     1.0000 0.20649  0.36930  0.93194  Biso   1.000  H
  C318     1.0000 0.30282  0.75178  0.98410  Biso   1.000  C
  H360     1.0000 0.39670  0.87233  0.01352  Biso   1.000  H
  H361     1.0000 0.20272  0.66362  0.94956  Biso   1.000  H
  C319     1.0000 0.44902  0.69724  0.98410  Biso   1.000  C
  H362     1.0000 0.47562  0.60331  0.01352  Biso   1.000  H
  H363     1.0000 0.46086  0.79727  0.94956  Biso   1.000  H
  C320     1.0000 0.24816  0.55098  0.98410  Biso   1.000  C
  H364     1.0000 0.12768  0.52437  0.01352  Biso   1.000  H
  H365     1.0000 0.33642  0.53912  0.94956  Biso   1.000  H
  C321     1.0000 0.33326  0.66667  0.99564  Biso   1.000  C
  C322     1.0000 0.33326  0.66667  0.03112  Biso   1.000  C
  H366     1.0000 0.34289  0.60742  0.03843  Biso   1.000  H
  H367     1.0000 0.39257  0.73547  0.03843  Biso   1.000  H
  H368     1.0000 0.26448  0.65711  0.03843  Biso   1.000  H
  C323     1.0000 0.66662  0.33338  0.19778  Biso   1.000  C
  C324     1.0000 0.66662  0.33338  0.16230  Biso   1.000  C
  H369     1.0000 0.72595  0.32373  0.20509  Biso   1.000  H
  H370     1.0000 0.59785  0.27405  0.20509  Biso   1.000  H
  H371     1.0000 0.67626  0.40218  0.20509  Biso   1.000  H
  C325     1.0000 0.58153  0.36386  0.15078  Biso   1.000  C
  C326     1.0000 0.63618  0.21769  0.15078  Biso   1.000  C
  C327     1.0000 0.78231  0.41849  0.15078  Biso   1.000  C
  C328     1.0000 0.47813  0.31846  0.16388  Biso   1.000  C
  C329     1.0000 0.60172  0.43307  0.12595  Biso   1.000  C
  C330     1.0000 0.68153  0.15968  0.16388  Biso   1.000  C
  C331     1.0000 0.56692  0.16867  0.12595  Biso   1.000  C
  C332     1.0000 0.84037  0.52190  0.16388  Biso   1.000  C
  C333     1.0000 0.83138  0.39830  0.12595  Biso   1.000  C
  C334     1.0000 0.39899  0.34244  0.15362  Biso   1.000  C
  H372     1.0000 0.46100  0.26993  0.18019  Biso   1.000  H
  C335     1.0000 0.52382  0.45738  0.11533  Biso   1.000  C
  H373     1.0000 0.66976  0.46397  0.11622  Biso   1.000  H
  C336     1.0000 0.65753  0.05661  0.15362  Biso   1.000  C
  H374     1.0000 0.73005  0.19108  0.18019  Biso   1.000  H
  C337     1.0000 0.54267  0.06649  0.11533  Biso   1.000  C
  H375     1.0000 0.53601  0.20574  0.11622  Biso   1.000  H
  H376     1.0000 0.80894  0.53895  0.18019  Biso   1.000  H
  C338     1.0000 0.94343  0.60100  0.15362  Biso   1.000  C
  C339     1.0000 0.93353  0.47617  0.11533  Biso   1.000  C
  H377     1.0000 0.79421  0.33024  0.11622  Biso   1.000  H
  H378     1.0000 0.33049  0.31105  0.16310  Biso   1.000  H
  C340     1.0000 0.42210  0.41305  0.12931  Biso   1.000  C
  H379     1.0000 0.53985  0.50385  0.09860  Biso   1.000  H
  C341     1.0000 0.58695  0.00906  0.12931  Biso   1.000  C
  H380     1.0000 0.68890  0.01945  0.16310  Biso   1.000  H
  H381     1.0000 0.49617  0.03601  0.09860  Biso   1.000  H
  H382     1.0000 0.98052  0.66947  0.16310  Biso   1.000  H
  C342     1.0000 0.99093  0.57784  0.12931  Biso   1.000  C
  H383     1.0000 0.96407  0.46018  0.09860  Biso   1.000  H
  O31      1.0000 0.35192  0.44510  0.11752  Biso   1.000  O
  O32      1.0000 0.55487  0.90681  0.11752  Biso   1.000  O
  O33      1.0000 0.09318  0.64805  0.11752  Biso   1.000  O
  C343     1.0000 0.25283  0.41503  0.13365  Biso   1.000  C
  C344     1.0000 0.58493  0.83776  0.13365  Biso   1.000  C
  C345     1.0000 0.16222  0.74717  0.13365  Biso   1.000  C
  H384     1.0000 0.26932  0.45186  0.15330  Biso   1.000  H
  H385     1.0000 0.21212  0.33618  0.13708  Biso   1.000  H
  C346     1.0000 0.18600  0.44964  0.11435  Biso   1.000  C
  C347     1.0000 0.55034  0.73633  0.11435  Biso   1.000  C
  H386     1.0000 0.54818  0.81749  0.15330  Biso   1.000  H
  H387     1.0000 0.66384  0.87599  0.13708  Biso   1.000  H
  H388     1.0000 0.18253  0.73069  0.15330  Biso   1.000  H
  H389     1.0000 0.12406  0.78787  0.13708  Biso   1.000  H
  C348     1.0000 0.26364  0.81399  0.11435  Biso   1.000  C
  H390     1.0000 0.22721  0.52907  0.11172  Biso   1.000  H
  H391     1.0000 0.11826  0.43118  0.12504  Biso   1.000  H
  C349     1.0000 0.15774  0.39525  0.08307  Biso   1.000  C
  C350     1.0000 0.60472  0.76245  0.08307  Biso   1.000  C
  H392     1.0000 0.47097  0.69818  0.11172  Biso   1.000  H
  H393     1.0000 0.56880  0.68706  0.12504  Biso   1.000  H
  H394     1.0000 0.30184  0.77279  0.11172  Biso   1.000  H
  H395     1.0000 0.31296  0.88180  0.12504  Biso   1.000  H
  C351     1.0000 0.23752  0.84225  0.08307  Biso   1.000  C
  C352     1.0000 0.09582  0.27141  0.08359  Biso   1.000  C
  H396     1.0000 0.11391  0.42006  0.07213  Biso   1.000  H
  H397     1.0000 0.22566  0.42006  0.07174  Biso   1.000  H
  C353     1.0000 0.72860  0.82441  0.08359  Biso   1.000  C
  H398     1.0000 0.57993  0.69390  0.07213  Biso   1.000  H
  H399     1.0000 0.57995  0.80554  0.07174  Biso   1.000  H
  C354     1.0000 0.17560  0.90422  0.08359  Biso   1.000  C
  H400     1.0000 0.30611  0.88609  0.07213  Biso   1.000  H
  H401     1.0000 0.19444  0.77436  0.07174  Biso   1.000  H
  C355     1.0000 0.06970  0.21703  0.05232  Biso   1.000  C
  H402     1.0000 0.02719  0.24661  0.09454  Biso   1.000  H
  H403     1.0000 0.13893  0.24661  0.09493  Biso   1.000  H
  C356     1.0000 0.78298  0.85268  0.05232  Biso   1.000  C
  H404     1.0000 0.75335  0.78058  0.09454  Biso   1.000  H
  H405     1.0000 0.75342  0.89231  0.09493  Biso   1.000  H
  C357     1.0000 0.14734  0.93034  0.05232  Biso   1.000  C
  H406     1.0000 0.21937  0.97277  0.09454  Biso   1.000  H
  H407     1.0000 0.10774  0.86112  0.09493  Biso   1.000  H
  C358     1.0000 0.17113  0.25164  0.03301  Biso   1.000  C
  H408     1.0000 0.03148  0.13760  0.05495  Biso   1.000  H
  H409     1.0000 0.02041  0.23549  0.04163  Biso   1.000  H
  C359     1.0000 0.74839  0.91950  0.03301  Biso   1.000  C
  H410     1.0000 0.86238  0.89387  0.05495  Biso   1.000  H
  H411     1.0000 0.76449  0.78486  0.04163  Biso   1.000  H
  C360     1.0000 0.08050  0.82891  0.03301  Biso   1.000  C
  H412     1.0000 0.10612  0.96849  0.05495  Biso   1.000  H
  H413     1.0000 0.21508  0.97961  0.04163  Biso   1.000  H
  O34      1.0000 0.24015  0.22156  0.04914  Biso   1.000  O
  H414     1.0000 0.15079  0.21481  0.01337  Biso   1.000  H
  H415     1.0000 0.20927  0.33049  0.02959  Biso   1.000  H
  O35      1.0000 0.77847  0.01862  0.04914  Biso   1.000  O
  H416     1.0000 0.78517  0.93598  0.01337  Biso   1.000  H
  H417     1.0000 0.66952  0.87880  0.02959  Biso   1.000  H
  O36      1.0000 0.98140  0.75986  0.04914  Biso   1.000  O
  H418     1.0000 0.06402  0.84918  0.01337  Biso   1.000  H
  H419     1.0000 0.12118  0.79067  0.02959  Biso   1.000  H
  C361     1.0000 0.34238  0.25362  0.03735  Biso   1.000  C
  C362     1.0000 0.74642  0.08882  0.03735  Biso   1.000  C
  C363     1.0000 0.91122  0.65760  0.03735  Biso   1.000  C
  C364     1.0000 0.38989  0.32423  0.01305  Biso   1.000  C
  C365     1.0000 0.39978  0.20929  0.05136  Biso   1.000  C
  C366     1.0000 0.67576  0.06567  0.01305  Biso   1.000  C
  C367     1.0000 0.79070  0.19050  0.05136  Biso   1.000  C
  C368     1.0000 0.93426  0.61006  0.01305  Biso   1.000  C
  C369     1.0000 0.80951  0.60017  0.05136  Biso   1.000  C
  C370     1.0000 0.49300  0.34821  0.00279  Biso   1.000  C
  H420     1.0000 0.35278  0.35562  0.00356  Biso   1.000  H
  H421     1.0000 0.36933  0.16281  0.06806  Biso   1.000  H
  C371     1.0000 0.50198  0.23359  0.04071  Biso   1.000  C
  C372     1.0000 0.65181  0.14477  0.00279  Biso   1.000  C
  H422     1.0000 0.64438  0.99720  0.00356  Biso   1.000  H
  C373     1.0000 0.76641  0.26836  0.04071  Biso   1.000  C
  H423     1.0000 0.83722  0.20648  0.06806  Biso   1.000  H
  C374     1.0000 0.85518  0.50698  0.00279  Biso   1.000  C
  H424     1.0000 0.00279  0.64722  0.00356  Biso   1.000  H
  C375     1.0000 0.73159  0.49800  0.04071  Biso   1.000  C
  H425     1.0000 0.79350  0.63066  0.06806  Biso   1.000  H
  C376     1.0000 0.55100  0.30281  0.01590  Biso   1.000  C
  H426     1.0000 0.52440  0.39674  0.98648  Biso   1.000  H
  H427     1.0000 0.53912  0.20269  0.05044  Biso   1.000  H
  C377     1.0000 0.69716  0.24818  0.01590  Biso   1.000  C
  H428     1.0000 0.60332  0.12771  0.98648  Biso   1.000  H
  H429     1.0000 0.79730  0.33642  0.05044  Biso   1.000  H
  C378     1.0000 0.75182  0.44898  0.01590  Biso   1.000  C
  H430     1.0000 0.87230  0.47559  0.98648  Biso   1.000  H
  H431     1.0000 0.66360  0.46092  0.05044  Biso   1.000  H
  C379     1.0000 0.66672  0.33329  0.00436  Biso   1.000  C
  C380     1.0000 0.66672  0.33329  0.96888  Biso   1.000  C
  H432     1.0000 0.65713  0.39262  0.96157  Biso   1.000  H
  H433     1.0000 0.60741  0.26449  0.96157  Biso   1.000  H
  H434     1.0000 0.73555  0.34293  0.96157  Biso   1.000  H
