data_image0
_cell_length_a       42.473
_cell_length_b       13.299
_cell_length_c       29.371
_cell_angle_alpha    90
_cell_angle_beta     133.71
_cell_angle_gamma    90

_symmetry_space_group_name_H-M    "P 1"
_symmetry_int_tables_number       1

loop_
  _symmetry_equiv_pos_as_xyz
  'x, y, z'

loop_
  _atom_site_label
  _atom_site_occupancy
  _atom_site_fract_x
  _atom_site_fract_y
  _atom_site_fract_z
  _atom_site_thermal_displace_type
  _atom_site_B_iso_or_equiv
  _atom_site_type_symbol
  C1       1.0000 0.43789  0.48267  0.42198  Biso   1.000  C
  C2       1.0000 0.42291  0.46146  0.45090  Biso   1.000  C
  C3       1.0000 0.41348  0.45748  0.35948  Biso   1.000  C
  H1       1.0000 0.46472  0.51417  0.44502  Biso   1.000  H
  C4       1.0000 0.38389  0.41417  0.41718  Biso   1.000  C
  H2       1.0000 0.43930  0.47958  0.49259  Biso   1.000  H
  C5       1.0000 0.37382  0.41259  0.32712  Biso   1.000  C
  C6       1.0000 0.43141  0.47951  0.32929  Biso   1.000  C
  C7       1.0000 0.35790  0.39183  0.35402  Biso   1.000  C
  O1       1.0000 0.37350  0.39251  0.45170  Biso   1.000  O
  H3       1.0000 0.35689  0.39552  0.28511  Biso   1.000  H
  O2       1.0000 0.47816  0.47643  0.37851  Biso   1.000  O
  C8       1.0000 0.41570  0.39717  0.28120  Biso   1.000  C
  C9       1.0000 0.41810  0.58538  0.30070  Biso   1.000  C
  H4       1.0000 0.33052  0.36341  0.33042  Biso   1.000  H
  C10      1.0000 0.33401  0.34048  0.42081  Biso   1.000  C
  C11      1.0000 0.43511  0.30378  0.30202  Biso   1.000  C
  C12      1.0000 0.38271  0.41048  0.21601  Biso   1.000  C
  C13      1.0000 0.44719  0.64418  0.30621  Biso   1.000  C
  C14      1.0000 0.37780  0.62388  0.26810  Biso   1.000  C
  H5       1.0000 0.33570  0.30777  0.45199  Biso   1.000  H
  H6       1.0000 0.33001  0.28882  0.39391  Biso   1.000  H
  C15      1.0000 0.29641  0.40823  0.38261  Biso   1.000  C
  H7       1.0000 0.45741  0.29220  0.34502  Biso   1.000  H
  C16      1.0000 0.42200  0.22633  0.26019  Biso   1.000  C
  C17      1.0000 0.36979  0.33333  0.17329  Biso   1.000  C
  H8       1.0000 0.36891  0.47259  0.20032  Biso   1.000  H
  H9       1.0000 0.47549  0.62140  0.32971  Biso   1.000  H
  C18      1.0000 0.43490  0.73690  0.27738  Biso   1.000  C
  C19      1.0000 0.36420  0.71772  0.23862  Biso   1.000  C
  H10      1.0000 0.35820  0.58568  0.26542  Biso   1.000  H
  C20      1.0000 0.26690  0.46823  0.35402  Biso   1.000  C
  H11      1.0000 0.43511  0.16347  0.27540  Biso   1.000  H
  C21      1.0000 0.39031  0.24227  0.19731  Biso   1.000  C
  H12      1.0000 0.34790  0.34371  0.13009  Biso   1.000  H
  H13      1.0000 0.45450  0.77517  0.28030  Biso   1.000  H
  C22      1.0000 0.39430  0.77246  0.24479  Biso   1.000  C
  H14      1.0000 0.33621  0.74171  0.21601  Biso   1.000  H
  C23      1.0000 0.23341  0.53372  0.32020  Biso   1.000  C
  O3       1.0000 0.37940  0.15881  0.16010  Biso   1.000  O
  O4       1.0000 0.38542  0.86540  0.21502  Biso   1.000  O
  C24      1.0000 0.20330  0.59140  0.28920  Biso   1.000  C
  C25      1.0000 0.34392  0.16520  0.09392  Biso   1.000  C
  C26      1.0000 0.34838  0.91969  0.19368  Biso   1.000  C
  C27      1.0000 0.16590  0.65862  0.25190  Biso   1.000  C
  H15      1.0000 0.34640  0.11166  0.07409  Biso   1.000  H
  H16      1.0000 0.34551  0.22866  0.07941  Biso   1.000  H
  C28      1.0000 0.30169  0.15783  0.07409  Biso   1.000  C
  H17      1.0000 0.35331  0.99083  0.19330  Biso   1.000  H
  H18      1.0000 0.34561  0.90969  0.22350  Biso   1.000  H
  C29      1.0000 0.30809  0.89089  0.13188  Biso   1.000  C
  H19      1.0000 0.16431  0.69253  0.27950  Biso   1.000  H
  H20      1.0000 0.16988  0.70953  0.23259  Biso   1.000  H
  O5       1.0000 0.12629  0.60711  0.20419  Biso   1.000  O
  C30      1.0000 0.26680  0.14490  0.05572  Biso   1.000  C
  C31      1.0000 0.27429  0.87187  0.08229  Biso   1.000  C
  C32      1.0000 0.11578  0.58583  0.14898  Biso   1.000  C
  C33      1.0000 0.22540  0.12813  0.03382  Biso   1.000  C
  C34      1.0000 0.23400  0.85337  0.02299  Biso   1.000  C
  C35      1.0000 0.14190  0.60847  0.13890  Biso   1.000  C
  C36      1.0000 0.07690  0.53936  0.10471  Biso   1.000  C
  C37      1.0000 0.19180  0.11023  0.01578  Biso   1.000  C
  C38      1.0000 0.19811  0.84292  0.96990  Biso   1.000  C
  H21      1.0000 0.16920  0.63727  0.17051  Biso   1.000  H
  C39      1.0000 0.12649  0.58741  0.07970  Biso   1.000  C
  C40      1.0000 0.06220  0.51944  0.04630  Biso   1.000  C
  H22      1.0000 0.06030  0.52117  0.11328  Biso   1.000  H
  C41      1.0000 0.15081  0.08121  0.99661  Biso   1.000  C
  C42      1.0000 0.15569  0.83442  0.90509  Biso   1.000  C
  H23      1.0000 0.14371  0.60373  0.07202  Biso   1.000  H
  C43      1.0000 0.08679  0.54327  0.03288  Biso   1.000  C
  H24      1.0000 0.03510  0.48913  0.01540  Biso   1.000  H
  H25      1.0000 0.15340  0.09241  0.03170  Biso   1.000  H
  H26      1.0000 0.14619  0.00978  0.98719  Biso   1.000  H
  O6       1.0000 0.11438  0.13339  0.94418  Biso   1.000  O
  H27      1.0000 0.15300  0.88744  0.87989  Biso   1.000  H
  H28      1.0000 0.15422  0.77051  0.88771  Biso   1.000  H
  O7       1.0000 0.12030  0.84112  0.90099  Biso   1.000  O
  C44      1.0000 0.06891  0.52109  0.96722  Biso   1.000  C
  C45      1.0000 0.10580  0.22678  0.95638  Biso   1.000  C
  C46      1.0000 0.10971  0.75863  0.91710  Biso   1.000  C
  O8       1.0000 0.02191  0.52380  0.92228  Biso   1.000  O
  C47      1.0000 0.08211  0.41469  0.96430  Biso   1.000  C
  C48      1.0000 0.08469  0.60283  0.94970  Biso   1.000  C
  C49      1.0000 0.13509  0.28107  0.00989  Biso   1.000  C
  C50      1.0000 0.06551  0.26258  0.90881  Biso   1.000  C
  C51      1.0000 0.07721  0.77382  0.91621  Biso   1.000  C
  C52      1.0000 0.13042  0.66817  0.93462  Biso   1.000  C
  C53      1.0000 0.12251  0.37657  0.01262  Biso   1.000  C
  C54      1.0000 0.05270  0.35642  0.91201  Biso   1.000  C
  C55      1.0000 0.06499  0.69577  0.93208  Biso   1.000  C
  C56      1.0000 0.11741  0.58952  0.95012  Biso   1.000  C
  H29      1.0000 0.16281  0.25588  0.04371  Biso   1.000  H
  H30      1.0000 0.04558  0.22363  0.87278  Biso   1.000  H
  H31      1.0000 0.06371  0.83608  0.90500  Biso   1.000  H
  H32      1.0000 0.15289  0.65900  0.93618  Biso   1.000  H
  H33      1.0000 0.14229  0.41507  0.04880  Biso   1.000  H
  H34      1.0000 0.02449  0.37920  0.87900  Biso   1.000  H
  H35      1.0000 0.04279  0.70622  0.93090  Biso   1.000  H
  H36      1.0000 0.13089  0.52711  0.96100  Biso   1.000  H
  C57      1.0000 0.56209  0.51733  0.57798  Biso   1.000  C
  C58      1.0000 0.58649  0.54252  0.64049  Biso   1.000  C
  H37      1.0000 0.53531  0.48583  0.55500  Biso   1.000  H
  C59      1.0000 0.57711  0.53854  0.54911  Biso   1.000  C
  C60      1.0000 0.56859  0.52049  0.67068  Biso   1.000  C
  C61      1.0000 0.62620  0.58741  0.67289  Biso   1.000  C
  H38      1.0000 0.56070  0.52042  0.50738  Biso   1.000  H
  C62      1.0000 0.61609  0.58583  0.58279  Biso   1.000  C
  O9       1.0000 0.52183  0.52357  0.62150  Biso   1.000  O
  C63      1.0000 0.58430  0.60283  0.71882  Biso   1.000  C
  C64      1.0000 0.58190  0.41462  0.69932  Biso   1.000  C
  C65      1.0000 0.64210  0.60817  0.64600  Biso   1.000  C
  H39      1.0000 0.64310  0.60448  0.71491  Biso   1.000  H
  O10      1.0000 0.62650  0.60749  0.54831  Biso   1.000  O
  C66      1.0000 0.56491  0.69622  0.69800  Biso   1.000  C
  C67      1.0000 0.61731  0.58952  0.78401  Biso   1.000  C
  C68      1.0000 0.55280  0.35582  0.69381  Biso   1.000  C
  C69      1.0000 0.62220  0.37612  0.73191  Biso   1.000  C
  H40      1.0000 0.66950  0.63659  0.66960  Biso   1.000  H
  C70      1.0000 0.66601  0.65952  0.57921  Biso   1.000  C
  H41      1.0000 0.54259  0.70780  0.65499  Biso   1.000  H
  C71      1.0000 0.57800  0.77367  0.73978  Biso   1.000  C
  C72      1.0000 0.63019  0.66667  0.82668  Biso   1.000  C
  H42      1.0000 0.63109  0.52741  0.79969  Biso   1.000  H
  H43      1.0000 0.52450  0.37860  0.67030  Biso   1.000  H
  C73      1.0000 0.56510  0.26310  0.72258  Biso   1.000  C
  C74      1.0000 0.63579  0.28228  0.76140  Biso   1.000  C
  H44      1.0000 0.64180  0.41432  0.73460  Biso   1.000  H
  H45      1.0000 0.66429  0.69223  0.54798  Biso   1.000  H
  H46      1.0000 0.67001  0.71118  0.60610  Biso   1.000  H
  C75      1.0000 0.70359  0.59177  0.61741  Biso   1.000  C
  H47      1.0000 0.56491  0.83653  0.72461  Biso   1.000  H
  C76      1.0000 0.60969  0.75773  0.80270  Biso   1.000  C
  H48      1.0000 0.65210  0.65629  0.86992  Biso   1.000  H
  H49      1.0000 0.54550  0.22483  0.71971  Biso   1.000  H
  C77      1.0000 0.60570  0.22754  0.75518  Biso   1.000  C
  H50      1.0000 0.66381  0.25829  0.78401  Biso   1.000  H
  C78      1.0000 0.73310  0.53177  0.64600  Biso   1.000  C
  O11      1.0000 0.62060  0.84119  0.83991  Biso   1.000  O
  O12      1.0000 0.61460  0.13460  0.78499  Biso   1.000  O
  C79      1.0000 0.76661  0.46628  0.67982  Biso   1.000  C
  C80      1.0000 0.65610  0.83480  0.90609  Biso   1.000  C
  C81      1.0000 0.65159  0.08031  0.80628  Biso   1.000  C
  C82      1.0000 0.79670  0.40860  0.71081  Biso   1.000  C
  H51      1.0000 0.65362  0.88834  0.92592  Biso   1.000  H
  H52      1.0000 0.65449  0.77134  0.92060  Biso   1.000  H
  C83      1.0000 0.69831  0.84217  0.92592  Biso   1.000  C
  H53      1.0000 0.64671  0.00917  0.80671  Biso   1.000  H
  H54      1.0000 0.65441  0.09031  0.77652  Biso   1.000  H
  C84      1.0000 0.69188  0.10911  0.86808  Biso   1.000  C
  C85      1.0000 0.83412  0.34138  0.74811  Biso   1.000  C
  C86      1.0000 0.73319  0.85510  0.94429  Biso   1.000  C
  C87      1.0000 0.72568  0.12813  0.91768  Biso   1.000  C
  H55      1.0000 0.83571  0.30747  0.72051  Biso   1.000  H
  H56      1.0000 0.83009  0.29047  0.76738  Biso   1.000  H
  O13      1.0000 0.87368  0.39289  0.79578  Biso   1.000  O
  C88      1.0000 0.77460  0.87187  0.96619  Biso   1.000  C
  C89      1.0000 0.76600  0.14663  0.97698  Biso   1.000  C
  C90      1.0000 0.88419  0.41417  0.85098  Biso   1.000  C
  C91      1.0000 0.80820  0.88977  0.98419  Biso   1.000  C
  C92      1.0000 0.80191  0.15708  0.03011  Biso   1.000  C
  C93      1.0000 0.85812  0.39153  0.86111  Biso   1.000  C
  C94      1.0000 0.92310  0.46064  0.89531  Biso   1.000  C
  C95      1.0000 0.84919  0.91879  0.00340  Biso   1.000  C
  C96      1.0000 0.84430  0.16558  0.09492  Biso   1.000  C
  H57      1.0000 0.83079  0.36273  0.82951  Biso   1.000  H
  C97      1.0000 0.87351  0.41259  0.92032  Biso   1.000  C
  C98      1.0000 0.93780  0.48056  0.95371  Biso   1.000  C
  H58      1.0000 0.93970  0.47883  0.88669  Biso   1.000  H
  H59      1.0000 0.84660  0.90759  0.96831  Biso   1.000  H
  H60      1.0000 0.85379  0.99022  0.01278  Biso   1.000  H
  O14      1.0000 0.88559  0.86661  0.05578  Biso   1.000  O
  H61      1.0000 0.84702  0.11256  0.12012  Biso   1.000  H
  H62      1.0000 0.84580  0.22949  0.11230  Biso   1.000  H
  O15      1.0000 0.87972  0.15888  0.09902  Biso   1.000  O
  H63      1.0000 0.85629  0.39627  0.92799  Biso   1.000  H
  C99      1.0000 0.91318  0.45673  0.96709  Biso   1.000  C
  H64      1.0000 0.96490  0.51087  0.98461  Biso   1.000  H
  C100     1.0000 0.89419  0.77322  0.04358  Biso   1.000  C
  C101     1.0000 0.89032  0.24137  0.08291  Biso   1.000  C
  C102     1.0000 0.93109  0.47891  0.03280  Biso   1.000  C
  C103     1.0000 0.86491  0.71893  0.99012  Biso   1.000  C
  C104     1.0000 0.93449  0.73742  0.09120  Biso   1.000  C
  C105     1.0000 0.92281  0.22618  0.08381  Biso   1.000  C
  C106     1.0000 0.86961  0.33183  0.06539  Biso   1.000  C
  C107     1.0000 0.91791  0.58531  0.03572  Biso   1.000  C
  C108     1.0000 0.91531  0.39717  0.05032  Biso   1.000  C
  O16      1.0000 0.97806  0.47620  0.07768  Biso   1.000  O
  C109     1.0000 0.87749  0.62343  0.98739  Biso   1.000  C
  H65      1.0000 0.83721  0.74412  0.95630  Biso   1.000  H
  H66      1.0000 0.95439  0.77637  0.12719  Biso   1.000  H
  C110     1.0000 0.94730  0.64358  0.08800  Biso   1.000  C
  H67      1.0000 0.93631  0.16392  0.09502  Biso   1.000  H
  C111     1.0000 0.93500  0.30423  0.06789  Biso   1.000  C
  C112     1.0000 0.88259  0.41048  0.04989  Biso   1.000  C
  H68      1.0000 0.84708  0.34100  0.06379  Biso   1.000  H
  H69      1.0000 0.85771  0.58493  0.95122  Biso   1.000  H
  H70      1.0000 0.97551  0.62080  0.12102  Biso   1.000  H
  H71      1.0000 0.95720  0.29378  0.06911  Biso   1.000  H
  H72      1.0000 0.86910  0.47289  0.03901  Biso   1.000  H
  C113     1.0000 0.43500  0.19580  0.56790  Biso   1.000  C
  C114     1.0000 0.41529  0.10279  0.55029  Biso   1.000  C
  C115     1.0000 0.42279  0.27378  0.58378  Biso   1.000  C
  H73      1.0000 0.45718  0.20618  0.56908  Biso   1.000  H
  C116     1.0000 0.43112  0.02113  0.53281  Biso   1.000  C
  C117     1.0000 0.38261  0.08948  0.54991  Biso   1.000  C
  C118     1.0000 0.39029  0.25859  0.58288  Biso   1.000  C
  H74      1.0000 0.43629  0.33612  0.59499  Biso   1.000  H
  C119     1.0000 0.41321  0.04331  0.46711  Biso   1.000  C
  O17      1.0000 0.47806  0.02384  0.57770  Biso   1.000  O
  C120     1.0000 0.41789  0.91473  0.53569  Biso   1.000  C
  H75      1.0000 0.36908  0.02707  0.53898  Biso   1.000  H
  C121     1.0000 0.36961  0.16821  0.56541  Biso   1.000  C
  O18      1.0000 0.37970  0.34108  0.59899  Biso   1.000  O
  C122     1.0000 0.37348  0.08737  0.42029  Biso   1.000  C
  C123     1.0000 0.43780  0.01940  0.45368  Biso   1.000  C
  C124     1.0000 0.44730  0.85638  0.58802  Biso   1.000  C
  C125     1.0000 0.37749  0.87661  0.48741  Biso   1.000  C
  H76      1.0000 0.34711  0.15903  0.56381  Biso   1.000  H
  C126     1.0000 0.34431  0.33439  0.59489  Biso   1.000  C
  C127     1.0000 0.35809  0.10850  0.36108  Biso   1.000  C
  H77      1.0000 0.35631  0.10369  0.42801  Biso   1.000  H
  C128     1.0000 0.42310  0.03940  0.39532  Biso   1.000  C
  H78      1.0000 0.46488  0.98910  0.48458  Biso   1.000  H
  C129     1.0000 0.43451  0.76261  0.59122  Biso   1.000  C
  H79      1.0000 0.47549  0.87916  0.62099  Biso   1.000  H
  H80      1.0000 0.35769  0.91511  0.45119  Biso   1.000  H
  C130     1.0000 0.36491  0.78111  0.49009  Biso   1.000  C
  C131     1.0000 0.30189  0.34288  0.53008  Biso   1.000  C
  H81      1.0000 0.34700  0.38740  0.62009  Biso   1.000  H
  H82      1.0000 0.34581  0.27047  0.61232  Biso   1.000  H
  C132     1.0000 0.38419  0.08580  0.35100  Biso   1.000  C
  H83      1.0000 0.33082  0.13730  0.32952  Biso   1.000  H
  H84      1.0000 0.43970  0.02120  0.38670  Biso   1.000  H
  C133     1.0000 0.39420  0.72682  0.54360  Biso   1.000  C
  H85      1.0000 0.45439  0.72359  0.62720  Biso   1.000  H
  H86      1.0000 0.33721  0.75592  0.45632  Biso   1.000  H
  C134     1.0000 0.26600  0.35341  0.47700  Biso   1.000  C
  O19      1.0000 0.37371  0.10708  0.29580  Biso   1.000  O
  O20      1.0000 0.38559  0.63343  0.55580  Biso   1.000  O
  C135     1.0000 0.22571  0.37191  0.41770  Biso   1.000  C
  C136     1.0000 0.33409  0.15858  0.24808  Biso   1.000  C
  C137     1.0000 0.34922  0.58117  0.50342  Biso   1.000  C
  C138     1.0000 0.19191  0.39093  0.36810  Biso   1.000  C
  C139     1.0000 0.29668  0.09144  0.21078  Biso   1.000  C
  H87      1.0000 0.33569  0.19250  0.22048  Biso   1.000  H
  H88      1.0000 0.33009  0.20949  0.26740  Biso   1.000  H
  C140     1.0000 0.30820  0.61020  0.48420  Biso   1.000  C
  H89      1.0000 0.35379  0.50981  0.51279  Biso   1.000  H
  H90      1.0000 0.34660  0.59238  0.46828  Biso   1.000  H
  C141     1.0000 0.15159  0.41973  0.30630  Biso   1.000  C
  C142     1.0000 0.26659  0.03369  0.17979  Biso   1.000  C
  C143     1.0000 0.27460  0.62809  0.46621  Biso   1.000  C
  O21      1.0000 0.11460  0.36537  0.28501  Biso   1.000  O
  H91      1.0000 0.14669  0.49079  0.30668  Biso   1.000  H
  H92      1.0000 0.15439  0.40973  0.27649  Biso   1.000  H
  C144     1.0000 0.23310  0.96819  0.14601  Biso   1.000  C
  C145     1.0000 0.23320  0.64494  0.44431  Biso   1.000  C
  C146     1.0000 0.10570  0.27250  0.25520  Biso   1.000  C
  C147     1.0000 0.20359  0.90819  0.11738  Biso   1.000  C
  C148     1.0000 0.19828  0.65779  0.42589  Biso   1.000  C
  C149     1.0000 0.06510  0.23694  0.22260  Biso   1.000  C
  C150     1.0000 0.13582  0.21769  0.26141  Biso   1.000  C
  C151     1.0000 0.16599  0.84051  0.07918  Biso   1.000  C
  C152     1.0000 0.15610  0.66516  0.40611  Biso   1.000  C
  C153     1.0000 0.05280  0.14422  0.19382  Biso   1.000  C
  H93      1.0000 0.04550  0.27521  0.21968  Biso   1.000  H
  C154     1.0000 0.12220  0.12392  0.23188  Biso   1.000  C
  H94      1.0000 0.16381  0.24167  0.28402  Biso   1.000  H
  O22      1.0000 0.12650  0.89247  0.04828  Biso   1.000  O
  H95      1.0000 0.16430  0.80781  0.04800  Biso   1.000  H
  H96      1.0000 0.17001  0.78878  0.10612  Biso   1.000  H
  O23      1.0000 0.12060  0.65877  0.33988  Biso   1.000  O
  H97      1.0000 0.15360  0.61170  0.42589  Biso   1.000  H
  H98      1.0000 0.15451  0.72870  0.42062  Biso   1.000  H
  C155     1.0000 0.08190  0.08542  0.19929  Biso   1.000  C
  H99      1.0000 0.02450  0.12136  0.17032  Biso   1.000  H
  H100     1.0000 0.14180  0.08572  0.23461  Biso   1.000  H
  C156     1.0000 0.11611  0.91420  0.08280  Biso   1.000  C
  C157     1.0000 0.10971  0.74231  0.30272  Biso   1.000  C
  C158     1.0000 0.06859  0.97947  0.17070  Biso   1.000  C
  C159     1.0000 0.07709  0.96150  0.04908  Biso   1.000  C
  C160     1.0000 0.14210  0.89180  0.14601  Biso   1.000  C
  C161     1.0000 0.07800  0.72630  0.23979  Biso   1.000  C
  C162     1.0000 0.13019  0.83330  0.32670  Biso   1.000  C
  C163     1.0000 0.08649  0.95752  0.14050  Biso   1.000  C
  O24      1.0000 0.02183  0.97639  0.12152  Biso   1.000  O
  C164     1.0000 0.08430  0.89721  0.21879  Biso   1.000  C
  C165     1.0000 0.06211  0.98271  0.07800  Biso   1.000  C
  H101     1.0000 0.06070  0.97962  0.00739  Biso   1.000  H
  H102     1.0000 0.16951  0.86337  0.16961  Biso   1.000  H
  C166     1.0000 0.12621  0.91263  0.17291  Biso   1.000  C
  C167     1.0000 0.06491  0.80382  0.19801  Biso   1.000  C
  H103     1.0000 0.06489  0.66351  0.22458  Biso   1.000  H
  C168     1.0000 0.11731  0.91052  0.28402  Biso   1.000  C
  H104     1.0000 0.15210  0.84367  0.36989  Biso   1.000  H
  H105     1.0000 0.03531  0.01421  0.05501  Biso   1.000  H
  H106     1.0000 0.14308  0.89548  0.21488  Biso   1.000  H
  H107     1.0000 0.04262  0.79216  0.15501  Biso   1.000  H
  H108     1.0000 0.13111  0.97263  0.29971  Biso   1.000  H
  C169     1.0000 0.56502  0.80420  0.43211  Biso   1.000  C
  C170     1.0000 0.57719  0.72622  0.41619  Biso   1.000  C
  H109     1.0000 0.54279  0.79382  0.43088  Biso   1.000  H
  C171     1.0000 0.58469  0.89721  0.44968  Biso   1.000  C
  C172     1.0000 0.60968  0.74141  0.41708  Biso   1.000  C
  H110     1.0000 0.56368  0.66388  0.40498  Biso   1.000  H
  C173     1.0000 0.61741  0.91052  0.45010  Biso   1.000  C
  C174     1.0000 0.56891  0.97887  0.46720  Biso   1.000  C
  O25      1.0000 0.62030  0.65892  0.40102  Biso   1.000  O
  C175     1.0000 0.63041  0.83179  0.43461  Biso   1.000  C
  H111     1.0000 0.63089  0.97293  0.46098  Biso   1.000  H
  O26      1.0000 0.52193  0.97616  0.42231  Biso   1.000  O
  C176     1.0000 0.58681  0.95669  0.53291  Biso   1.000  C
  C177     1.0000 0.58208  0.08527  0.46428  Biso   1.000  C
  C178     1.0000 0.65571  0.66561  0.40512  Biso   1.000  C
  H112     1.0000 0.65291  0.84097  0.43621  Biso   1.000  H
  C179     1.0000 0.62649  0.91263  0.57968  Biso   1.000  C
  C180     1.0000 0.56220  0.98060  0.54628  Biso   1.000  C
  C181     1.0000 0.55270  0.14362  0.41200  Biso   1.000  C
  C182     1.0000 0.62251  0.12339  0.51261  Biso   1.000  C
  C183     1.0000 0.69808  0.65712  0.46989  Biso   1.000  C
  H113     1.0000 0.65302  0.61260  0.37992  Biso   1.000  H
  H114     1.0000 0.65419  0.72953  0.38769  Biso   1.000  H
  C184     1.0000 0.64190  0.89150  0.63889  Biso   1.000  C
  H115     1.0000 0.64371  0.89631  0.57200  Biso   1.000  H
  C185     1.0000 0.57690  0.96060  0.60469  Biso   1.000  C
  H116     1.0000 0.53509  0.01090  0.51539  Biso   1.000  H
  C186     1.0000 0.56551  0.23739  0.40879  Biso   1.000  C
  H117     1.0000 0.52449  0.12084  0.37898  Biso   1.000  H
  H118     1.0000 0.64229  0.08489  0.54878  Biso   1.000  H
  C187     1.0000 0.63511  0.21889  0.50992  Biso   1.000  C
  C188     1.0000 0.73402  0.64659  0.52302  Biso   1.000  C
  C189     1.0000 0.61581  0.91420  0.64901  Biso   1.000  C
  H119     1.0000 0.66920  0.86270  0.67049  Biso   1.000  H
  H120     1.0000 0.56030  0.97880  0.61331  Biso   1.000  H
  C190     1.0000 0.60580  0.27318  0.45641  Biso   1.000  C
  H121     1.0000 0.54560  0.27641  0.37281  Biso   1.000  H
  H122     1.0000 0.66279  0.24408  0.54369  Biso   1.000  H
  C191     1.0000 0.77431  0.62809  0.58232  Biso   1.000  C
  O27      1.0000 0.62632  0.89292  0.70422  Biso   1.000  O
  O28      1.0000 0.61440  0.36657  0.44421  Biso   1.000  O
  C192     1.0000 0.80812  0.60907  0.63191  Biso   1.000  C
  C193     1.0000 0.66588  0.84142  0.75188  Biso   1.000  C
  C194     1.0000 0.65080  0.41883  0.49659  Biso   1.000  C
  C195     1.0000 0.84840  0.58027  0.69371  Biso   1.000  C
  C196     1.0000 0.70329  0.90856  0.78919  Biso   1.000  C
  H123     1.0000 0.66428  0.80750  0.77948  Biso   1.000  H
  H124     1.0000 0.66991  0.79051  0.73262  Biso   1.000  H
  C197     1.0000 0.69180  0.38980  0.51581  Biso   1.000  C
  H125     1.0000 0.64621  0.49019  0.48722  Biso   1.000  H
  H126     1.0000 0.65340  0.40762  0.53168  Biso   1.000  H
  O29      1.0000 0.88540  0.63463  0.71500  Biso   1.000  O
  H127     1.0000 0.85329  0.50921  0.69329  Biso   1.000  H
  H128     1.0000 0.84558  0.59027  0.72348  Biso   1.000  H
  C198     1.0000 0.73338  0.96631  0.82018  Biso   1.000  C
  C199     1.0000 0.72540  0.37191  0.53380  Biso   1.000  C
  C200     1.0000 0.89430  0.72750  0.74482  Biso   1.000  C
  C201     1.0000 0.76690  0.03181  0.85400  Biso   1.000  C
  C202     1.0000 0.76680  0.35506  0.55570  Biso   1.000  C
  C203     1.0000 0.93490  0.76306  0.77741  Biso   1.000  C
  C204     1.0000 0.86420  0.78231  0.73860  Biso   1.000  C
  C205     1.0000 0.79640  0.09181  0.88259  Biso   1.000  C
  C206     1.0000 0.80171  0.34221  0.57412  Biso   1.000  C
  C207     1.0000 0.94719  0.85578  0.80619  Biso   1.000  C
  H129     1.0000 0.95450  0.72479  0.78028  Biso   1.000  H
  H130     1.0000 0.83619  0.75833  0.71599  Biso   1.000  H
  C208     1.0000 0.87780  0.87608  0.76808  Biso   1.000  C
  C209     1.0000 0.83399  0.15949  0.92079  Biso   1.000  C
  C210     1.0000 0.84389  0.33484  0.59390  Biso   1.000  C
  C211     1.0000 0.91810  0.91458  0.80068  Biso   1.000  C
  H131     1.0000 0.97549  0.87864  0.82969  Biso   1.000  H
  H132     1.0000 0.85820  0.91428  0.76540  Biso   1.000  H
  O30      1.0000 0.87350  0.10753  0.95169  Biso   1.000  O
  H133     1.0000 0.83570  0.19219  0.95202  Biso   1.000  H
  H134     1.0000 0.82999  0.21122  0.89389  Biso   1.000  H
  O31      1.0000 0.87940  0.34123  0.66008  Biso   1.000  O
  H135     1.0000 0.84640  0.38830  0.57412  Biso   1.000  H
  H136     1.0000 0.84551  0.27130  0.57940  Biso   1.000  H
  C212     1.0000 0.93140  0.02053  0.82932  Biso   1.000  C
  C213     1.0000 0.88391  0.08580  0.91721  Biso   1.000  C
  C214     1.0000 0.89031  0.25769  0.69729  Biso   1.000  C
  O32      1.0000 0.97816  0.02361  0.87849  Biso   1.000  O
  C215     1.0000 0.91570  0.10279  0.78118  Biso   1.000  C
  C216     1.0000 0.91350  0.04248  0.85951  Biso   1.000  C
  C217     1.0000 0.92289  0.03850  0.95089  Biso   1.000  C
  C218     1.0000 0.85790  0.10820  0.85400  Biso   1.000  C
  C219     1.0000 0.92200  0.27370  0.76022  Biso   1.000  C
  C220     1.0000 0.86981  0.16670  0.67332  Biso   1.000  C
  C221     1.0000 0.93509  0.19618  0.80200  Biso   1.000  C
  C222     1.0000 0.88269  0.08948  0.71599  Biso   1.000  C
  C223     1.0000 0.93791  0.01729  0.92201  Biso   1.000  C
  C224     1.0000 0.87379  0.08737  0.82710  Biso   1.000  C
  H137     1.0000 0.93930  0.02038  0.99262  Biso   1.000  H
  H138     1.0000 0.83049  0.13663  0.83040  Biso   1.000  H
  H139     1.0000 0.93509  0.33649  0.77539  Biso   1.000  H
  H140     1.0000 0.84790  0.15633  0.63008  Biso   1.000  H
  H141     1.0000 0.95740  0.20784  0.84500  Biso   1.000  H
  H142     1.0000 0.86891  0.02737  0.70031  Biso   1.000  H
  H143     1.0000 0.96469  0.98579  0.94500  Biso   1.000  H
  H144     1.0000 0.85689  0.10452  0.78509  Biso   1.000  H
  C225     1.0000 0.34390  0.83480  0.59390  Biso   1.000  C
  O33      1.0000 0.37939  0.84119  0.66008  Biso   1.000  O
  C226     1.0000 0.30170  0.84217  0.57412  Biso   1.000  C
  H145     1.0000 0.34641  0.88834  0.57412  Biso   1.000  H
  H146     1.0000 0.34549  0.77134  0.57940  Biso   1.000  H
  C227     1.0000 0.39029  0.75773  0.69729  Biso   1.000  C
  C228     1.0000 0.26681  0.85510  0.55570  Biso   1.000  C
  C229     1.0000 0.42201  0.77367  0.76022  Biso   1.000  C
  C230     1.0000 0.36980  0.66667  0.67332  Biso   1.000  C
  C231     1.0000 0.22541  0.87187  0.53380  Biso   1.000  C
  C232     1.0000 0.43510  0.69622  0.80200  Biso   1.000  C
  H147     1.0000 0.43510  0.83653  0.77539  Biso   1.000  H
  C233     1.0000 0.38270  0.58952  0.71599  Biso   1.000  C
  H148     1.0000 0.34789  0.65629  0.63008  Biso   1.000  H
  C234     1.0000 0.19181  0.88977  0.51581  Biso   1.000  C
  C235     1.0000 0.41569  0.60283  0.78118  Biso   1.000  C
  H149     1.0000 0.45739  0.70780  0.84500  Biso   1.000  H
  H150     1.0000 0.36890  0.52741  0.70031  Biso   1.000  H
  C236     1.0000 0.15079  0.91879  0.49659  Biso   1.000  C
  C237     1.0000 0.43142  0.52049  0.82932  Biso   1.000  C
  O34      1.0000 0.11442  0.86661  0.44421  Biso   1.000  O
  H151     1.0000 0.14622  0.99022  0.48722  Biso   1.000  H
  H152     1.0000 0.15339  0.90759  0.53168  Biso   1.000  H
  C238     1.0000 0.41808  0.41462  0.80068  Biso   1.000  C
  O35      1.0000 0.47817  0.52357  0.87849  Biso   1.000  O
  C239     1.0000 0.41352  0.54252  0.85951  Biso   1.000  C
  C240     1.0000 0.10581  0.77322  0.45641  Biso   1.000  C
  C241     1.0000 0.44720  0.35582  0.80619  Biso   1.000  C
  C242     1.0000 0.37779  0.37612  0.76808  Biso   1.000  C
  C243     1.0000 0.43790  0.51733  0.92201  Biso   1.000  C
  C244     1.0000 0.37380  0.58741  0.82710  Biso   1.000  C
  C245     1.0000 0.06549  0.73742  0.40879  Biso   1.000  C
  C246     1.0000 0.13510  0.71893  0.50992  Biso   1.000  C
  C247     1.0000 0.43491  0.26310  0.77741  Biso   1.000  C
  H153     1.0000 0.47551  0.37860  0.82969  Biso   1.000  H
  C248     1.0000 0.36419  0.28228  0.73860  Biso   1.000  C
  H154     1.0000 0.35821  0.41432  0.76540  Biso   1.000  H
  H155     1.0000 0.46470  0.48583  0.94500  Biso   1.000  H
  C249     1.0000 0.42290  0.53854  0.95089  Biso   1.000  C
  C250     1.0000 0.35791  0.60817  0.85400  Biso   1.000  C
  H156     1.0000 0.35691  0.60448  0.78509  Biso   1.000  H
  C251     1.0000 0.05271  0.64358  0.41200  Biso   1.000  C
  H157     1.0000 0.04561  0.77637  0.37281  Biso   1.000  H
  C252     1.0000 0.12249  0.62343  0.51261  Biso   1.000  C
  H158     1.0000 0.16280  0.74412  0.54369  Biso   1.000  H
  C253     1.0000 0.39431  0.22754  0.74482  Biso   1.000  C
  H159     1.0000 0.45449  0.22483  0.78028  Biso   1.000  H
  H160     1.0000 0.33620  0.25829  0.71599  Biso   1.000  H
  H161     1.0000 0.43931  0.52042  0.99262  Biso   1.000  H
  C254     1.0000 0.38390  0.58583  0.91721  Biso   1.000  C
  H162     1.0000 0.33050  0.63659  0.83040  Biso   1.000  H
  C255     1.0000 0.08210  0.58531  0.46428  Biso   1.000  C
  H163     1.0000 0.02450  0.62080  0.37898  Biso   1.000  H
  H164     1.0000 0.14230  0.58493  0.54878  Biso   1.000  H
  O36      1.0000 0.38541  0.13460  0.71500  Biso   1.000  O
  O37      1.0000 0.37349  0.60749  0.95169  Biso   1.000  O
  C256     1.0000 0.06889  0.47891  0.46720  Biso   1.000  C
  C257     1.0000 0.34842  0.08031  0.69371  Biso   1.000  C
  C258     1.0000 0.33400  0.65952  0.92079  Biso   1.000  C
  C259     1.0000 0.08470  0.39717  0.44968  Biso   1.000  C
  O38      1.0000 0.02195  0.47620  0.42231  Biso   1.000  O
  C260     1.0000 0.08680  0.45673  0.53291  Biso   1.000  C
  C261     1.0000 0.30810  0.10911  0.63191  Biso   1.000  C
  H165     1.0000 0.35330  0.00917  0.69329  Biso   1.000  H
  H166     1.0000 0.34560  0.09031  0.72348  Biso   1.000  H
  C262     1.0000 0.29639  0.59177  0.88259  Biso   1.000  C
  H167     1.0000 0.33571  0.69223  0.95202  Biso   1.000  H
  H168     1.0000 0.33000  0.71118  0.89389  Biso   1.000  H
  C263     1.0000 0.06500  0.30423  0.43211  Biso   1.000  C
  C264     1.0000 0.11739  0.41048  0.45010  Biso   1.000  C
  C265     1.0000 0.12648  0.41259  0.57968  Biso   1.000  C
  C266     1.0000 0.06218  0.48056  0.54628  Biso   1.000  C
  C267     1.0000 0.27430  0.12813  0.58232  Biso   1.000  C
  C268     1.0000 0.26691  0.53177  0.85400  Biso   1.000  C
  C269     1.0000 0.07720  0.22618  0.41619  Biso   1.000  C
  H169     1.0000 0.04278  0.29378  0.43088  Biso   1.000  H
  C270     1.0000 0.13040  0.33183  0.43461  Biso   1.000  C
  H170     1.0000 0.13088  0.47289  0.46098  Biso   1.000  H
  C271     1.0000 0.14189  0.39153  0.63889  Biso   1.000  C
  H171     1.0000 0.14369  0.39627  0.57200  Biso   1.000  H
  H172     1.0000 0.03508  0.51087  0.51539  Biso   1.000  H
  C272     1.0000 0.07689  0.46064  0.60469  Biso   1.000  C
  C273     1.0000 0.23401  0.14663  0.52302  Biso   1.000  C
  C274     1.0000 0.23340  0.46628  0.82018  Biso   1.000  C
  C275     1.0000 0.10969  0.24137  0.41708  Biso   1.000  C
  H173     1.0000 0.06369  0.16392  0.40498  Biso   1.000  H
  H174     1.0000 0.15290  0.34100  0.43621  Biso   1.000  H
  C276     1.0000 0.11582  0.41417  0.64901  Biso   1.000  C
  H175     1.0000 0.16919  0.36273  0.67049  Biso   1.000  H
  H176     1.0000 0.06031  0.47883  0.61331  Biso   1.000  H
  C277     1.0000 0.19809  0.15708  0.46989  Biso   1.000  C
  C278     1.0000 0.20328  0.40860  0.78919  Biso   1.000  C
  O39      1.0000 0.12031  0.15888  0.40102  Biso   1.000  O
  O40      1.0000 0.12630  0.39289  0.70422  Biso   1.000  O
  C279     1.0000 0.15570  0.16558  0.40512  Biso   1.000  C
  C280     1.0000 0.16589  0.34138  0.75188  Biso   1.000  C
  H177     1.0000 0.15301  0.11256  0.37992  Biso   1.000  H
  H178     1.0000 0.15420  0.22949  0.38769  Biso   1.000  H
  H179     1.0000 0.16429  0.30747  0.77948  Biso   1.000  H
  H180     1.0000 0.16992  0.29047  0.73262  Biso   1.000  H
  C281     1.0000 0.65609  0.16520  0.40611  Biso   1.000  C
  O41      1.0000 0.62059  0.15881  0.33988  Biso   1.000  O
  H181     1.0000 0.65359  0.11166  0.42589  Biso   1.000  H
  H182     1.0000 0.65450  0.22866  0.42062  Biso   1.000  H
  C282     1.0000 0.69830  0.15783  0.42589  Biso   1.000  C
  C283     1.0000 0.60970  0.24227  0.30272  Biso   1.000  C
  C284     1.0000 0.73321  0.14490  0.44431  Biso   1.000  C
  C285     1.0000 0.57801  0.22633  0.23979  Biso   1.000  C
  C286     1.0000 0.63020  0.33333  0.32670  Biso   1.000  C
  C287     1.0000 0.77461  0.12813  0.46621  Biso   1.000  C
  C288     1.0000 0.56490  0.30378  0.19801  Biso   1.000  C
  H183     1.0000 0.56490  0.16347  0.22458  Biso   1.000  H
  H184     1.0000 0.65209  0.34371  0.36989  Biso   1.000  H
  C289     1.0000 0.61732  0.41048  0.28402  Biso   1.000  C
  C290     1.0000 0.80821  0.11023  0.48420  Biso   1.000  C
  C291     1.0000 0.58429  0.39717  0.21879  Biso   1.000  C
  H185     1.0000 0.54260  0.29220  0.15501  Biso   1.000  H
  H186     1.0000 0.63110  0.47259  0.29971  Biso   1.000  H
  C292     1.0000 0.84920  0.08121  0.50342  Biso   1.000  C
  C293     1.0000 0.56861  0.47951  0.17070  Biso   1.000  C
  H187     1.0000 0.85380  0.00978  0.51279  Biso   1.000  H
  H188     1.0000 0.84659  0.09241  0.46828  Biso   1.000  H
  O42      1.0000 0.88560  0.13339  0.55580  Biso   1.000  O
  O43      1.0000 0.52185  0.47643  0.12152  Biso   1.000  O
  C294     1.0000 0.58650  0.45748  0.14050  Biso   1.000  C
  C295     1.0000 0.58189  0.58538  0.19929  Biso   1.000  C
  C296     1.0000 0.89421  0.22678  0.54360  Biso   1.000  C
  C297     1.0000 0.56210  0.48267  0.07800  Biso   1.000  C
  C298     1.0000 0.62619  0.41259  0.17291  Biso   1.000  C
  C299     1.0000 0.55282  0.64418  0.19382  Biso   1.000  C
  C300     1.0000 0.62219  0.62388  0.23188  Biso   1.000  C
  C301     1.0000 0.93450  0.26258  0.59122  Biso   1.000  C
  C302     1.0000 0.86490  0.28107  0.49009  Biso   1.000  C
  H189     1.0000 0.53532  0.51417  0.05501  Biso   1.000  H
  C303     1.0000 0.57710  0.46146  0.04908  Biso   1.000  C
  C304     1.0000 0.64211  0.39183  0.14601  Biso   1.000  C
  H190     1.0000 0.64309  0.39552  0.21488  Biso   1.000  H
  H191     1.0000 0.52452  0.62140  0.17032  Biso   1.000  H
  C305     1.0000 0.56511  0.73690  0.22260  Biso   1.000  C
  C306     1.0000 0.63581  0.71772  0.26141  Biso   1.000  C
  H192     1.0000 0.64181  0.58568  0.23461  Biso   1.000  H
  H193     1.0000 0.95441  0.22363  0.62720  Biso   1.000  H
  C307     1.0000 0.94731  0.35642  0.58802  Biso   1.000  C
  C308     1.0000 0.87750  0.37657  0.48741  Biso   1.000  C
  H194     1.0000 0.83722  0.25588  0.45632  Biso   1.000  H
  H195     1.0000 0.56069  0.47958  0.00739  Biso   1.000  H
  C309     1.0000 0.61610  0.41417  0.08280  Biso   1.000  C
  H196     1.0000 0.66952  0.36341  0.16961  Biso   1.000  H
  H197     1.0000 0.54549  0.77517  0.21968  Biso   1.000  H
  C310     1.0000 0.60569  0.77246  0.25520  Biso   1.000  C
  H198     1.0000 0.66382  0.74171  0.28402  Biso   1.000  H
  H199     1.0000 0.97550  0.37920  0.62099  Biso   1.000  H
  C311     1.0000 0.91790  0.41469  0.53569  Biso   1.000  C
  H200     1.0000 0.85770  0.41507  0.45119  Biso   1.000  H
  O44      1.0000 0.62649  0.39251  0.04828  Biso   1.000  O
  O45      1.0000 0.61461  0.86540  0.28501  Biso   1.000  O
  C312     1.0000 0.93110  0.52109  0.53281  Biso   1.000  C
  C313     1.0000 0.66600  0.34048  0.07918  Biso   1.000  C
  C314     1.0000 0.65160  0.91969  0.30630  Biso   1.000  C
  O46      1.0000 0.97808  0.52380  0.57770  Biso   1.000  O
  C315     1.0000 0.91320  0.54327  0.46711  Biso   1.000  C
  C316     1.0000 0.91530  0.60283  0.55029  Biso   1.000  C
  H201     1.0000 0.66431  0.30777  0.04800  Biso   1.000  H
  H202     1.0000 0.67002  0.28882  0.10612  Biso   1.000  H
  C317     1.0000 0.70358  0.40823  0.11738  Biso   1.000  C
  H203     1.0000 0.64670  0.99083  0.30668  Biso   1.000  H
  H204     1.0000 0.65440  0.90969  0.27649  Biso   1.000  H
  C318     1.0000 0.69189  0.89089  0.36810  Biso   1.000  C
  C319     1.0000 0.87350  0.58741  0.42029  Biso   1.000  C
  C320     1.0000 0.93779  0.51944  0.45368  Biso   1.000  C
  C321     1.0000 0.93499  0.69577  0.56790  Biso   1.000  C
  C322     1.0000 0.88260  0.58952  0.54991  Biso   1.000  C
  C323     1.0000 0.73311  0.46823  0.14601  Biso   1.000  C
  C324     1.0000 0.72569  0.87187  0.41770  Biso   1.000  C
  C325     1.0000 0.85808  0.60847  0.36108  Biso   1.000  C
  H205     1.0000 0.85630  0.60373  0.42801  Biso   1.000  H
  H206     1.0000 0.96489  0.48913  0.48458  Biso   1.000  H
  C326     1.0000 0.92311  0.53936  0.39532  Biso   1.000  C
  C327     1.0000 0.92280  0.77382  0.58378  Biso   1.000  C
  H207     1.0000 0.95719  0.70622  0.56908  Biso   1.000  H
  H208     1.0000 0.86909  0.52711  0.53898  Biso   1.000  H
  C328     1.0000 0.86959  0.66817  0.56541  Biso   1.000  C
  C329     1.0000 0.76660  0.53372  0.17979  Biso   1.000  C
  C330     1.0000 0.76599  0.85337  0.47700  Biso   1.000  C
  C331     1.0000 0.88420  0.58583  0.35100  Biso   1.000  C
  H209     1.0000 0.83081  0.63727  0.32952  Biso   1.000  H
  H210     1.0000 0.93971  0.52117  0.38670  Biso   1.000  H
  C332     1.0000 0.89028  0.75863  0.58288  Biso   1.000  C
  H211     1.0000 0.93630  0.83608  0.59499  Biso   1.000  H
  H212     1.0000 0.84710  0.65900  0.56381  Biso   1.000  H
  C333     1.0000 0.79669  0.59140  0.21078  Biso   1.000  C
  C334     1.0000 0.80188  0.84292  0.53008  Biso   1.000  C
  O47      1.0000 0.87369  0.60711  0.29580  Biso   1.000  O
  O48      1.0000 0.87969  0.84112  0.59899  Biso   1.000  O
  C335     1.0000 0.83408  0.65862  0.24808  Biso   1.000  C
  C336     1.0000 0.84429  0.83442  0.59489  Biso   1.000  C
  H213     1.0000 0.83570  0.69253  0.22048  Biso   1.000  H
  H214     1.0000 0.83010  0.70953  0.26740  Biso   1.000  H
  H215     1.0000 0.84699  0.88744  0.62009  Biso   1.000  H
  H216     1.0000 0.84582  0.77051  0.61232  Biso   1.000  H
  C337     1.0000 0.33410  0.84142  0.74811  Biso   1.000  C
  C338     1.0000 0.29671  0.90856  0.71081  Biso   1.000  C
  H217     1.0000 0.33570  0.80750  0.72051  Biso   1.000  H
  H218     1.0000 0.33008  0.79051  0.76738  Biso   1.000  H
  O49      1.0000 0.37369  0.89292  0.79578  Biso   1.000  O
  C339     1.0000 0.26660  0.96631  0.67982  Biso   1.000  C
  C340     1.0000 0.38420  0.91420  0.85098  Biso   1.000  C
  C341     1.0000 0.23309  0.03181  0.64600  Biso   1.000  C
  C342     1.0000 0.35810  0.89150  0.86111  Biso   1.000  C
  C343     1.0000 0.42311  0.96060  0.89531  Biso   1.000  C
  C344     1.0000 0.20360  0.09181  0.61741  Biso   1.000  C
  H219     1.0000 0.33081  0.86270  0.82951  Biso   1.000  H
  C345     1.0000 0.37352  0.91263  0.92032  Biso   1.000  C
  C346     1.0000 0.43781  0.98060  0.95371  Biso   1.000  C
  H220     1.0000 0.43969  0.97880  0.88669  Biso   1.000  H
  C347     1.0000 0.16600  0.15949  0.57921  Biso   1.000  C
  H221     1.0000 0.35630  0.89631  0.92799  Biso   1.000  H
  C348     1.0000 0.41320  0.95669  0.96709  Biso   1.000  C
  H222     1.0000 0.46491  0.01090  0.98461  Biso   1.000  H
  O50      1.0000 0.12651  0.10753  0.54831  Biso   1.000  O
  H223     1.0000 0.16428  0.19219  0.54798  Biso   1.000  H
  H224     1.0000 0.17000  0.21122  0.60610  Biso   1.000  H
  C349     1.0000 0.43110  0.97887  0.03280  Biso   1.000  C
  C350     1.0000 0.11610  0.08580  0.58279  Biso   1.000  C
  O51      1.0000 0.47805  0.97616  0.07768  Biso   1.000  O
  C351     1.0000 0.41532  0.89721  0.05032  Biso   1.000  C
  C352     1.0000 0.41790  0.08527  0.03572  Biso   1.000  C
  C353     1.0000 0.07710  0.03850  0.54911  Biso   1.000  C
  C354     1.0000 0.14209  0.10820  0.64600  Biso   1.000  C
  C355     1.0000 0.43499  0.80420  0.06789  Biso   1.000  C
  C356     1.0000 0.38260  0.91052  0.04989  Biso   1.000  C
  C357     1.0000 0.37750  0.12339  0.98739  Biso   1.000  C
  C358     1.0000 0.44731  0.14362  0.08800  Biso   1.000  C
  C359     1.0000 0.06210  0.01729  0.57798  Biso   1.000  C
  H225     1.0000 0.06069  0.02038  0.50738  Biso   1.000  H
  H226     1.0000 0.16949  0.13663  0.66960  Biso   1.000  H
  C360     1.0000 0.12619  0.08737  0.67289  Biso   1.000  C
  C361     1.0000 0.42280  0.72622  0.08381  Biso   1.000  C
  H227     1.0000 0.45721  0.79382  0.06911  Biso   1.000  H
  H228     1.0000 0.36911  0.97293  0.03901  Biso   1.000  H
  C362     1.0000 0.36959  0.83179  0.06539  Biso   1.000  C
  H229     1.0000 0.35770  0.08489  0.95122  Biso   1.000  H
  C363     1.0000 0.36492  0.21889  0.99012  Biso   1.000  C
  C364     1.0000 0.43450  0.23739  0.09120  Biso   1.000  C
  H230     1.0000 0.47552  0.12084  0.12102  Biso   1.000  H
  H231     1.0000 0.03529  0.98579  0.55500  Biso   1.000  H
  C365     1.0000 0.08650  0.04248  0.64049  Biso   1.000  C
  H232     1.0000 0.14311  0.10452  0.71491  Biso   1.000  H
  C366     1.0000 0.39030  0.74141  0.08291  Biso   1.000  C
  H233     1.0000 0.43630  0.66388  0.09502  Biso   1.000  H
  H234     1.0000 0.34710  0.84097  0.06379  Biso   1.000  H
  H235     1.0000 0.33720  0.24408  0.95630  Biso   1.000  H
  C367     1.0000 0.39418  0.27318  0.04358  Biso   1.000  C
  H236     1.0000 0.45441  0.27641  0.12719  Biso   1.000  H
  C368     1.0000 0.06858  0.02053  0.67068  Biso   1.000  C
  O52      1.0000 0.37971  0.65892  0.09902  Biso   1.000  O
  O53      1.0000 0.38558  0.36657  0.05578  Biso   1.000  O
  C369     1.0000 0.08191  0.91458  0.69932  Biso   1.000  C
  O54      1.0000 0.02182  0.02361  0.62150  Biso   1.000  O
  C370     1.0000 0.08431  0.10279  0.71882  Biso   1.000  C
  C371     1.0000 0.34432  0.66561  0.09492  Biso   1.000  C
  C372     1.0000 0.34920  0.41883  0.00340  Biso   1.000  C
  C373     1.0000 0.05279  0.85578  0.69381  Biso   1.000  C
  C374     1.0000 0.12221  0.87608  0.73191  Biso   1.000  C
  C375     1.0000 0.06490  0.19618  0.69800  Biso   1.000  C
  C376     1.0000 0.11729  0.08948  0.78401  Biso   1.000  C
  C377     1.0000 0.30190  0.65712  0.03011  Biso   1.000  C
  H237     1.0000 0.34701  0.61260  0.12012  Biso   1.000  H
  H238     1.0000 0.34579  0.72953  0.11230  Biso   1.000  H
  C378     1.0000 0.30819  0.38980  0.98419  Biso   1.000  C
  H239     1.0000 0.34661  0.40762  0.96831  Biso   1.000  H
  H240     1.0000 0.35380  0.49019  0.01278  Biso   1.000  H
  H241     1.0000 0.02449  0.87864  0.67030  Biso   1.000  H
  C379     1.0000 0.06508  0.76306  0.72258  Biso   1.000  C
  C380     1.0000 0.13580  0.78231  0.76140  Biso   1.000  C
  H242     1.0000 0.14181  0.91428  0.73460  Biso   1.000  H
  H243     1.0000 0.04260  0.20784  0.65499  Biso   1.000  H
  C381     1.0000 0.07798  0.27370  0.73978  Biso   1.000  C
  C382     1.0000 0.13020  0.16670  0.82668  Biso   1.000  C
  H244     1.0000 0.13110  0.02737  0.79969  Biso   1.000  H
  C383     1.0000 0.26599  0.64659  0.97698  Biso   1.000  C
  C384     1.0000 0.27459  0.37191  0.96619  Biso   1.000  C
  H245     1.0000 0.04551  0.72479  0.71971  Biso   1.000  H
  C385     1.0000 0.10569  0.72750  0.75518  Biso   1.000  C
  H246     1.0000 0.16380  0.75833  0.78401  Biso   1.000  H
  H247     1.0000 0.06490  0.33649  0.72461  Biso   1.000  H
  C386     1.0000 0.10970  0.25769  0.80270  Biso   1.000  C
  H248     1.0000 0.15211  0.15633  0.86992  Biso   1.000  H
  C387     1.0000 0.22569  0.62809  0.91768  Biso   1.000  C
  C388     1.0000 0.23321  0.35506  0.94429  Biso   1.000  C
  O55      1.0000 0.11459  0.63463  0.78499  Biso   1.000  O
  O56      1.0000 0.12061  0.34123  0.83991  Biso   1.000  O
  C389     1.0000 0.19189  0.60907  0.86808  Biso   1.000  C
  C390     1.0000 0.19832  0.34221  0.92592  Biso   1.000  C
  C391     1.0000 0.15160  0.58027  0.80628  Biso   1.000  C
  C392     1.0000 0.15609  0.33484  0.90609  Biso   1.000  C
  H249     1.0000 0.14670  0.50921  0.80671  Biso   1.000  H
  H250     1.0000 0.15440  0.59027  0.77652  Biso   1.000  H
  H251     1.0000 0.15361  0.38830  0.92592  Biso   1.000  H
  H252     1.0000 0.15450  0.27130  0.92060  Biso   1.000  H
  C393     1.0000 0.66589  0.15858  0.25190  Biso   1.000  C
  O57      1.0000 0.62628  0.10708  0.20419  Biso   1.000  O
  C394     1.0000 0.70331  0.09144  0.28920  Biso   1.000  C
  H253     1.0000 0.66430  0.19250  0.27950  Biso   1.000  H
  H254     1.0000 0.66990  0.20949  0.23259  Biso   1.000  H
  C395     1.0000 0.61580  0.08580  0.14898  Biso   1.000  C
  C396     1.0000 0.73340  0.03369  0.32020  Biso   1.000  C
  C397     1.0000 0.64189  0.10850  0.13890  Biso   1.000  C
  C398     1.0000 0.57691  0.03940  0.10471  Biso   1.000  C
  C399     1.0000 0.76691  0.96819  0.35402  Biso   1.000  C
  H255     1.0000 0.66921  0.13730  0.17051  Biso   1.000  H
  C400     1.0000 0.62650  0.08737  0.07970  Biso   1.000  C
  C401     1.0000 0.56221  0.01940  0.04630  Biso   1.000  C
  H256     1.0000 0.56029  0.02120  0.11328  Biso   1.000  H
  C402     1.0000 0.79639  0.90819  0.38261  Biso   1.000  C
  H257     1.0000 0.64372  0.10369  0.07202  Biso   1.000  H
  C403     1.0000 0.58678  0.04331  0.03288  Biso   1.000  C
  H258     1.0000 0.53511  0.98910  0.01540  Biso   1.000  H
  C404     1.0000 0.83400  0.84051  0.42081  Biso   1.000  C
  C405     1.0000 0.56892  0.02113  0.96722  Biso   1.000  C
  O58      1.0000 0.87351  0.89247  0.45170  Biso   1.000  O
  H259     1.0000 0.83569  0.80781  0.45199  Biso   1.000  H
  H260     1.0000 0.83000  0.78878  0.39391  Biso   1.000  H
  C406     1.0000 0.58210  0.91473  0.96430  Biso   1.000  C
  O59      1.0000 0.52192  0.02384  0.92228  Biso   1.000  O
  C407     1.0000 0.58470  0.10279  0.94970  Biso   1.000  C
  C408     1.0000 0.88390  0.91420  0.41718  Biso   1.000  C
  C409     1.0000 0.55271  0.85638  0.91201  Biso   1.000  C
  C410     1.0000 0.62252  0.87661  0.01262  Biso   1.000  C
  C411     1.0000 0.56498  0.19580  0.93208  Biso   1.000  C
  C412     1.0000 0.61742  0.08948  0.95012  Biso   1.000  C
  C413     1.0000 0.92290  0.96150  0.45090  Biso   1.000  C
  C414     1.0000 0.85791  0.89180  0.35402  Biso   1.000  C
  C415     1.0000 0.56550  0.76261  0.90881  Biso   1.000  C
  H261     1.0000 0.52450  0.87916  0.87900  Biso   1.000  H
  H262     1.0000 0.64230  0.91511  0.04880  Biso   1.000  H
  C416     1.0000 0.63510  0.78111  0.00989  Biso   1.000  C
  C417     1.0000 0.57720  0.27378  0.91621  Biso   1.000  C
  H263     1.0000 0.54281  0.20618  0.93090  Biso   1.000  H
  H264     1.0000 0.63091  0.02707  0.96100  Biso   1.000  H
  C418     1.0000 0.63040  0.16821  0.93462  Biso   1.000  C
  C419     1.0000 0.93790  0.98271  0.42198  Biso   1.000  C
  H265     1.0000 0.93929  0.97962  0.49259  Biso   1.000  H
  H266     1.0000 0.83050  0.86337  0.33042  Biso   1.000  H
  C420     1.0000 0.87380  0.91263  0.32712  Biso   1.000  C
  C421     1.0000 0.60579  0.72682  0.95638  Biso   1.000  C
  H267     1.0000 0.54559  0.72359  0.87278  Biso   1.000  H
  H268     1.0000 0.66280  0.75592  0.04371  Biso   1.000  H
  C422     1.0000 0.60969  0.25859  0.91710  Biso   1.000  C
  H269     1.0000 0.56370  0.33612  0.90500  Biso   1.000  H
  H270     1.0000 0.65288  0.15903  0.93618  Biso   1.000  H
  H271     1.0000 0.96470  0.01421  0.44502  Biso   1.000  H
  C423     1.0000 0.91349  0.95752  0.35948  Biso   1.000  C
  H272     1.0000 0.85691  0.89548  0.28511  Biso   1.000  H
  O60      1.0000 0.61439  0.63343  0.94418  Biso   1.000  O
  O61      1.0000 0.62029  0.34108  0.90099  Biso   1.000  O
  C424     1.0000 0.93139  0.97947  0.32929  Biso   1.000  C
  C425     1.0000 0.65079  0.58117  0.99661  Biso   1.000  C
  C426     1.0000 0.65570  0.33439  0.90509  Biso   1.000  C
  C427     1.0000 0.91811  0.08542  0.30070  Biso   1.000  C
  O62      1.0000 0.97818  0.97639  0.37851  Biso   1.000  O
  C428     1.0000 0.91569  0.89721  0.28120  Biso   1.000  C
  H273     1.0000 0.64620  0.50981  0.98719  Biso   1.000  H
  C429     1.0000 0.69179  0.61020  0.01578  Biso   1.000  C
  H274     1.0000 0.65339  0.59238  0.03170  Biso   1.000  H
  C430     1.0000 0.69809  0.34288  0.96990  Biso   1.000  C
  H275     1.0000 0.65299  0.38740  0.87989  Biso   1.000  H
  H276     1.0000 0.65420  0.27047  0.88771  Biso   1.000  H
  C431     1.0000 0.94721  0.14422  0.30621  Biso   1.000  C
  C432     1.0000 0.87781  0.12392  0.26810  Biso   1.000  C
  C433     1.0000 0.93510  0.80382  0.30202  Biso   1.000  C
  C434     1.0000 0.88270  0.91052  0.21601  Biso   1.000  C
  C435     1.0000 0.72541  0.62809  0.03382  Biso   1.000  C
  C436     1.0000 0.73398  0.35341  0.02299  Biso   1.000  C
  H277     1.0000 0.97551  0.12136  0.32971  Biso   1.000  H
  C437     1.0000 0.93489  0.23694  0.27738  Biso   1.000  C
  C438     1.0000 0.86422  0.21769  0.23862  Biso   1.000  C
  H278     1.0000 0.85821  0.08572  0.26542  Biso   1.000  H
  H279     1.0000 0.95742  0.79216  0.34502  Biso   1.000  H
  C439     1.0000 0.92199  0.72630  0.26019  Biso   1.000  C
  C440     1.0000 0.86980  0.83330  0.17329  Biso   1.000  C
  H280     1.0000 0.86892  0.97263  0.20032  Biso   1.000  H
  C441     1.0000 0.76681  0.64494  0.05572  Biso   1.000  C
  C442     1.0000 0.77430  0.37191  0.08229  Biso   1.000  C
  H281     1.0000 0.95451  0.27521  0.28030  Biso   1.000  H
  C443     1.0000 0.89429  0.27250  0.24479  Biso   1.000  C
  H282     1.0000 0.83620  0.24167  0.21601  Biso   1.000  H
  H283     1.0000 0.93510  0.66351  0.27540  Biso   1.000  H
  C444     1.0000 0.89029  0.74231  0.19731  Biso   1.000  C
  H284     1.0000 0.84789  0.84367  0.13009  Biso   1.000  H
  C445     1.0000 0.80170  0.65779  0.07409  Biso   1.000  C
  C446     1.0000 0.80808  0.39093  0.13188  Biso   1.000  C
  O63      1.0000 0.88541  0.36537  0.21502  Biso   1.000  O
  O64      1.0000 0.87939  0.65877  0.16010  Biso   1.000  O
  C447     1.0000 0.84390  0.66516  0.09392  Biso   1.000  C
  C448     1.0000 0.84840  0.41973  0.19368  Biso   1.000  C
  H285     1.0000 0.84639  0.61170  0.07409  Biso   1.000  H
  H286     1.0000 0.84550  0.72870  0.07941  Biso   1.000  H
  H287     1.0000 0.85330  0.49079  0.19330  Biso   1.000  H
  H288     1.0000 0.84560  0.40973  0.22350  Biso   1.000  H
  Ne1      1.0000 0.25002  0.00007  0.35344  Biso   1.000  Ne
  He1      1.0000 0.23901  0.03637  0.46333  Biso   1.000  He
  He2      1.0000 0.24829  0.11668  0.32579  Biso   1.000  He
  He3      1.0000 0.25136  0.89382  0.32562  Biso   1.000  He
  Ar1      1.0000 0.24919  0.00344  0.44704  Biso   1.000  Ar
  Ne2      1.0000 0.24998  0.50007  0.14656  Biso   1.000  Ne
  He4      1.0000 0.26659  0.65635  0.22216  Biso   1.000  He
  He5      1.0000 0.23027  0.33631  0.19096  Biso   1.000  He
  He6      1.0000 0.25292  0.48262  0.14879  Biso   1.000  He
  Ar2      1.0000 0.25029  0.50032  0.14684  Biso   1.000  Ar
  Ne3      1.0000 0.24998  0.49993  0.64656  Biso   1.000  Ne
  He7      1.0000 0.23590  0.24237  0.66324  Biso   1.000  He
  He8      1.0000 0.24836  0.62316  0.67384  Biso   1.000  He
  He9      1.0000 0.25323  0.51930  0.64549  Biso   1.000  He
  Ar3      1.0000 0.25030  0.49967  0.64685  Biso   1.000  Ar
  Ne4      1.0000 0.75002  0.49993  0.85344  Biso   1.000  Ne
  He10     1.0000 0.74707  0.47292  0.92204  Biso   1.000  He
  He11     1.0000 0.74453  0.46709  0.80382  Biso   1.000  He
  He12     1.0000 0.75649  0.63441  0.82161  Biso   1.000  He
  Ar4      1.0000 0.74980  0.49823  0.88827  Biso   1.000  Ar
  Ne5      1.0000 0.74998  0.99993  0.64656  Biso   1.000  Ne
  He13     1.0000 0.73589  0.74230  0.66320  Biso   1.000  He
  He14     1.0000 0.74834  0.12319  0.67385  Biso   1.000  He
  He15     1.0000 0.75322  0.01930  0.64550  Biso   1.000  He
  Ar5      1.0000 0.75029  0.99968  0.64685  Biso   1.000  Ar
  Ne6      1.0000 0.75002  0.50007  0.35344  Biso   1.000  Ne
  He16     1.0000 0.74649  0.53369  0.41735  Biso   1.000  He
  He17     1.0000 0.74171  0.63630  0.30214  Biso   1.000  He
  He18     1.0000 0.74486  0.32865  0.32107  Biso   1.000  He
  Ar6      1.0000 0.74982  0.50591  0.38873  Biso   1.000  Ar
  Ne7      1.0000 0.25002  0.99993  0.85344  Biso   1.000  Ne
  He19     1.0000 0.26162  0.03809  0.99024  Biso   1.000  He
  He20     1.0000 0.25006  0.89917  0.84458  Biso   1.000  He
  He21     1.0000 0.27458  0.15301  0.80203  Biso   1.000  He
  Ar7      1.0000 0.24705  0.01755  0.85151  Biso   1.000  Ar
  Ne8      1.0000 0.74998  0.00007  0.14656  Biso   1.000  Ne
  He22     1.0000 0.76662  0.15627  0.22221  Biso   1.000  He
  He23     1.0000 0.73027  0.83633  0.19096  Biso   1.000  He
  He24     1.0000 0.75293  0.98263  0.14880  Biso   1.000  He
  Ar8      1.0000 0.75031  0.00033  0.14686  Biso   1.000  Ar
