data_image0
_cell_length_a       19.129
_cell_length_b       19.129
_cell_length_c       50.923
_cell_angle_alpha    90
_cell_angle_beta     90
_cell_angle_gamma    120

_symmetry_space_group_name_H-M    "P 1"
_symmetry_int_tables_number       1

loop_
  _symmetry_equiv_pos_as_xyz
  'x, y, z'

loop_
  _atom_site_label
  _atom_site_occupancy
  _atom_site_fract_x
  _atom_site_fract_y
  _atom_site_fract_z
  _atom_site_thermal_displace_type
  _atom_site_B_iso_or_equiv
  _atom_site_type_symbol
  C1       1.0000 0.38061  0.07775  0.47882  Biso   1.000  C
  N1       1.0000 0.38222  0.09435  0.45384  Biso   1.000  N
  H1       1.0000 0.42873  0.10437  0.48817  Biso   1.000  H
  C2       1.0000 0.31060  0.02221  0.49235  Biso   1.000  C
  C3       1.0000 0.45203  0.15399  0.44112  Biso   1.000  C
  C4       1.0000 0.31251  0.01014  0.51977  Biso   1.000  C
  C5       1.0000 0.23717  0.97573  0.47941  Biso   1.000  C
  C6       1.0000 0.45162  0.15526  0.41372  Biso   1.000  C
  C7       1.0000 0.52102  0.21115  0.45429  Biso   1.000  C
  H2       1.0000 0.36140  0.03924  0.52846  Biso   1.000  H
  C8       1.0000 0.24643  0.95817  0.53392  Biso   1.000  C
  O1       1.0000 0.23156  0.98322  0.45315  Biso   1.000  O
  C9       1.0000 0.17034  0.92267  0.49349  Biso   1.000  C
  C10      1.0000 0.51914  0.21085  0.39974  Biso   1.000  C
  H3       1.0000 0.40542  0.11837  0.40467  Biso   1.000  H
  C11      1.0000 0.58734  0.26705  0.44053  Biso   1.000  C
  H4       1.0000 0.52211  0.21145  0.47258  Biso   1.000  H
  C12      1.0000 0.17361  0.91459  0.52037  Biso   1.000  C
  C13      1.0000 0.25046  0.94815  0.56318  Biso   1.000  C
  H5       1.0000 0.26724  0.97785  0.44546  Biso   1.000  H
  H6       1.0000 0.12164  0.89147  0.48477  Biso   1.000  H
  C14      1.0000 0.58829  0.26844  0.41270  Biso   1.000  C
  H7       1.0000 0.51812  0.20964  0.38146  Biso   1.000  H
  C15      1.0000 0.66667  0.33339  0.45188  Biso   1.000  C
  H8       1.0000 0.12689  0.87969  0.52956  Biso   1.000  H
  H9       1.0000 0.30666  0.97157  0.56837  Biso   1.000  H
  H10      1.0000 0.22355  0.89098  0.56727  Biso   1.000  H
  C16      1.0000 0.21282  0.98630  0.57887  Biso   1.000  C
  C17      1.0000 0.66667  0.33339  0.40153  Biso   1.000  C
  C18      1.0000 0.73294  0.32029  0.44053  Biso   1.000  C
  C19      1.0000 0.67974  0.41265  0.44053  Biso   1.000  C
  H11      1.0000 0.66667  0.33339  0.47116  Biso   1.000  H
  H12      1.0000 0.23702  0.04256  0.57387  Biso   1.000  H
  C20      1.0000 0.22186  0.98159  0.60796  Biso   1.000  C
  H13      1.0000 0.15583  0.96016  0.57467  Biso   1.000  H
  H14      1.0000 0.66667  0.33339  0.38226  Biso   1.000  H
  C21      1.0000 0.73153  0.31987  0.41270  Biso   1.000  C
  C22      1.0000 0.68015  0.41168  0.41270  Biso   1.000  C
  C23      1.0000 0.78883  0.30985  0.45429  Biso   1.000  C
  C24      1.0000 0.69017  0.47899  0.45429  Biso   1.000  C
  C25      1.0000 0.28583  0.04147  0.62147  Biso   1.000  C
  C26      1.0000 0.16969  0.91175  0.62194  Biso   1.000  C
  C27      1.0000 0.78914  0.30828  0.39974  Biso   1.000  C
  C28      1.0000 0.69173  0.48086  0.39974  Biso   1.000  C
  C29      1.0000 0.84604  0.29808  0.44112  Biso   1.000  C
  H15      1.0000 0.78852  0.31069  0.47258  Biso   1.000  H
  C30      1.0000 0.70193  0.54798  0.44112  Biso   1.000  C
  H16      1.0000 0.68934  0.47784  0.47258  Biso   1.000  H
  C31      1.0000 0.29753  0.03507  0.64839  Biso   1.000  C
  H17      1.0000 0.32252  0.08777  0.61247  Biso   1.000  H
  C32      1.0000 0.18125  0.90529  0.64833  Biso   1.000  C
  H18      1.0000 0.12653  0.86925  0.61326  Biso   1.000  H
  H19      1.0000 0.79033  0.30846  0.38146  Biso   1.000  H
  C33      1.0000 0.84473  0.29639  0.41372  Biso   1.000  C
  H20      1.0000 0.69157  0.48188  0.38146  Biso   1.000  H
  C34      1.0000 0.70363  0.54835  0.41372  Biso   1.000  C
  N2       1.0000 0.90566  0.28788  0.45384  Biso   1.000  N
  N3       1.0000 0.71214  0.61776  0.45384  Biso   1.000  N
  C35      1.0000 0.36629  0.09930  0.66143  Biso   1.000  C
  C36      1.0000 0.24367  0.96426  0.66153  Biso   1.000  C
  H21      1.0000 0.14472  0.85869  0.65727  Biso   1.000  H
  H22      1.0000 0.88164  0.28709  0.40467  Biso   1.000  H
  H23      1.0000 0.71294  0.59458  0.40467  Biso   1.000  H
  C37      1.0000 0.92224  0.30285  0.47882  Biso   1.000  C
  C38      1.0000 0.69717  0.61939  0.47882  Biso   1.000  C
  N4       1.0000 0.38186  0.09646  0.68590  Biso   1.000  N
  H24      1.0000 0.40106  0.14499  0.65177  Biso   1.000  H
  O2       1.0000 0.25405  0.95533  0.68782  Biso   1.000  O
  H25      1.0000 0.89564  0.32440  0.48817  Biso   1.000  H
  C39      1.0000 0.97778  0.28836  0.49235  Biso   1.000  C
  H26      1.0000 0.67563  0.57128  0.48817  Biso   1.000  H
  C40      1.0000 0.71159  0.68942  0.49235  Biso   1.000  C
  C41      1.0000 0.45141  0.15725  0.69823  Biso   1.000  C
  H27      1.0000 0.29735  0.99487  0.69307  Biso   1.000  H
  C42      1.0000 0.98986  0.30236  0.51977  Biso   1.000  C
  C43      1.0000 0.02428  0.26144  0.47941  Biso   1.000  C
  C44      1.0000 0.73851  0.76282  0.47941  Biso   1.000  C
  C45      1.0000 0.69769  0.68754  0.51977  Biso   1.000  C
  C46      1.0000 0.52005  0.21393  0.68413  Biso   1.000  C
  C47      1.0000 0.45294  0.15821  0.72555  Biso   1.000  C
  H28      1.0000 0.96076  0.32216  0.52846  Biso   1.000  H
  C48      1.0000 0.04181  0.28824  0.53392  Biso   1.000  C
  O3       1.0000 0.01676  0.24828  0.45315  Biso   1.000  O
  C49      1.0000 0.07736  0.24767  0.49349  Biso   1.000  C
  O4       1.0000 0.75175  0.76849  0.45315  Biso   1.000  O
  C50      1.0000 0.75232  0.82964  0.49349  Biso   1.000  C
  C51      1.0000 0.71178  0.75358  0.53392  Biso   1.000  C
  H29      1.0000 0.67786  0.63859  0.52846  Biso   1.000  H
  C52      1.0000 0.58759  0.27007  0.69794  Biso   1.000  C
  H30      1.0000 0.52004  0.21369  0.66587  Biso   1.000  H
  H31      1.0000 0.40783  0.12049  0.73478  Biso   1.000  H
  C53      1.0000 0.52048  0.21435  0.73914  Biso   1.000  C
  C54      1.0000 0.08544  0.25902  0.52037  Biso   1.000  C
  C55      1.0000 0.05186  0.30236  0.56318  Biso   1.000  C
  H32      1.0000 0.02216  0.28938  0.44546  Biso   1.000  H
  H33      1.0000 0.10855  0.23017  0.48477  Biso   1.000  H
  H34      1.0000 0.71062  0.73276  0.44546  Biso   1.000  H
  H35      1.0000 0.76983  0.87835  0.48477  Biso   1.000  H
  C56      1.0000 0.74097  0.82638  0.52037  Biso   1.000  C
  C57      1.0000 0.69768  0.74954  0.56318  Biso   1.000  C
  C58      1.0000 0.66667  0.33339  0.68655  Biso   1.000  C
  C59      1.0000 0.58720  0.26971  0.72561  Biso   1.000  C
  H36      1.0000 0.52043  0.21447  0.75736  Biso   1.000  H
  H37      1.0000 0.12035  0.24719  0.52956  Biso   1.000  H
  H38      1.0000 0.02843  0.33508  0.56837  Biso   1.000  H
  H39      1.0000 0.10903  0.33254  0.56727  Biso   1.000  H
  C60      1.0000 0.01366  0.22649  0.57887  Biso   1.000  C
  H40      1.0000 0.75286  0.87316  0.52956  Biso   1.000  H
  H41      1.0000 0.66493  0.69334  0.56837  Biso   1.000  H
  H42      1.0000 0.66744  0.77646  0.56727  Biso   1.000  H
  C61      1.0000 0.77355  0.78721  0.57887  Biso   1.000  C
  H43      1.0000 0.66667  0.33339  0.66726  Biso   1.000  H
  C62      1.0000 0.72993  0.31751  0.69794  Biso   1.000  C
  C63      1.0000 0.68250  0.41241  0.69794  Biso   1.000  C
  C64      1.0000 0.66667  0.33339  0.73731  Biso   1.000  C
  H44      1.0000 0.95746  0.19449  0.57387  Biso   1.000  H
  C65      1.0000 0.01842  0.24031  0.60796  Biso   1.000  C
  H45      1.0000 0.03984  0.19564  0.57467  Biso   1.000  H
  C66      1.0000 0.75969  0.77809  0.60796  Biso   1.000  C
  H46      1.0000 0.80554  0.76294  0.57387  Biso   1.000  H
  H47      1.0000 0.80434  0.84419  0.57467  Biso   1.000  H
  C67      1.0000 0.78607  0.30611  0.68413  Biso   1.000  C
  C68      1.0000 0.73030  0.31751  0.72561  Biso   1.000  C
  C69      1.0000 0.69389  0.47995  0.68413  Biso   1.000  C
  C70      1.0000 0.68247  0.41277  0.72561  Biso   1.000  C
  H48      1.0000 0.66667  0.33339  0.75657  Biso   1.000  H
  C71      1.0000 0.95855  0.24435  0.62147  Biso   1.000  C
  C72      1.0000 0.08821  0.25787  0.62194  Biso   1.000  C
  C73      1.0000 0.74212  0.83037  0.62194  Biso   1.000  C
  C74      1.0000 0.75564  0.71416  0.62147  Biso   1.000  C
  C75      1.0000 0.84277  0.29415  0.69823  Biso   1.000  C
  H49      1.0000 0.78635  0.30635  0.66587  Biso   1.000  H
  C76      1.0000 0.78565  0.30611  0.73914  Biso   1.000  C
  C77      1.0000 0.70584  0.54859  0.69823  Biso   1.000  C
  H50      1.0000 0.69363  0.47995  0.66587  Biso   1.000  H
  C78      1.0000 0.69389  0.47953  0.73914  Biso   1.000  C
  C79      1.0000 0.96489  0.26246  0.64839  Biso   1.000  C
  H51      1.0000 0.91224  0.23476  0.61247  Biso   1.000  H
  C80      1.0000 0.09476  0.27598  0.64833  Biso   1.000  C
  H52      1.0000 0.13073  0.25727  0.61326  Biso   1.000  H
  C81      1.0000 0.72404  0.81878  0.64833  Biso   1.000  C
  H53      1.0000 0.74271  0.87347  0.61326  Biso   1.000  H
  C82      1.0000 0.73755  0.70245  0.64839  Biso   1.000  C
  H54      1.0000 0.76526  0.67746  0.61247  Biso   1.000  H
  N5       1.0000 0.90353  0.28540  0.68590  Biso   1.000  N
  C83      1.0000 0.84182  0.29476  0.72555  Biso   1.000  C
  H55      1.0000 0.78554  0.30598  0.75736  Biso   1.000  H
  N6       1.0000 0.71460  0.61819  0.68590  Biso   1.000  N
  C84      1.0000 0.70529  0.54708  0.72555  Biso   1.000  C
  H56      1.0000 0.69403  0.47959  0.75736  Biso   1.000  H
  C85      1.0000 0.90068  0.26693  0.66143  Biso   1.000  C
  C86      1.0000 0.03576  0.27936  0.66153  Biso   1.000  C
  H57      1.0000 0.14131  0.28606  0.65727  Biso   1.000  H
  C87      1.0000 0.72064  0.75636  0.66153  Biso   1.000  C
  H58      1.0000 0.71397  0.85530  0.65727  Biso   1.000  H
  C88      1.0000 0.73302  0.63370  0.66143  Biso   1.000  C
  H59      1.0000 0.87954  0.28739  0.73478  Biso   1.000  H
  H60      1.0000 0.71263  0.59217  0.73478  Biso   1.000  H
  H61      1.0000 0.85504  0.25606  0.65177  Biso   1.000  H
  O5       1.0000 0.04468  0.29868  0.68782  Biso   1.000  O
  O6       1.0000 0.70134  0.74598  0.68782  Biso   1.000  O
  H62      1.0000 0.74395  0.59899  0.65177  Biso   1.000  H
  H63      1.0000 0.00513  0.30248  0.69307  Biso   1.000  H
  H64      1.0000 0.69752  0.70270  0.69307  Biso   1.000  H
  C89      1.0000 0.24765  0.17035  0.50651  Biso   1.000  C
  C90      1.0000 0.25905  0.17361  0.47963  Biso   1.000  C
  C91      1.0000 0.26146  0.23717  0.52059  Biso   1.000  C
  H65      1.0000 0.23014  0.12163  0.51523  Biso   1.000  H
  C92      1.0000 0.28824  0.24641  0.46608  Biso   1.000  C
  H66      1.0000 0.24716  0.12682  0.47044  Biso   1.000  H
  C93      1.0000 0.28838  0.31057  0.50765  Biso   1.000  C
  O7       1.0000 0.24830  0.23156  0.54685  Biso   1.000  O
  C94      1.0000 0.30234  0.25045  0.43682  Biso   1.000  C
  C95      1.0000 0.30237  0.31250  0.48023  Biso   1.000  C
  C96      1.0000 0.30285  0.38059  0.52118  Biso   1.000  C
  H67      1.0000 0.28935  0.26723  0.55454  Biso   1.000  H
  C97      1.0000 0.22647  0.21278  0.42113  Biso   1.000  C
  H68      1.0000 0.33509  0.30665  0.43163  Biso   1.000  H
  H69      1.0000 0.33258  0.22353  0.43273  Biso   1.000  H
  H70      1.0000 0.32219  0.36146  0.47154  Biso   1.000  H
  N7       1.0000 0.28788  0.38222  0.54616  Biso   1.000  N
  H71      1.0000 0.32434  0.42870  0.51183  Biso   1.000  H
  C98      1.0000 0.24028  0.22190  0.39204  Biso   1.000  C
  H72      1.0000 0.19448  0.23705  0.42613  Biso   1.000  H
  H73      1.0000 0.19566  0.15586  0.42533  Biso   1.000  H
  C99      1.0000 0.29804  0.45200  0.55888  Biso   1.000  C
  C100     1.0000 0.24433  0.28582  0.37853  Biso   1.000  C
  C101     1.0000 0.25785  0.16962  0.37806  Biso   1.000  C
  C102     1.0000 0.29639  0.45164  0.58628  Biso   1.000  C
  C103     1.0000 0.30985  0.52100  0.54571  Biso   1.000  C
  C104     1.0000 0.26247  0.29753  0.35161  Biso   1.000  C
  H74      1.0000 0.23476  0.32252  0.38753  Biso   1.000  H
  C105     1.0000 0.27598  0.18121  0.35167  Biso   1.000  C
  H75      1.0000 0.25726  0.12652  0.38674  Biso   1.000  H
  C106     1.0000 0.30829  0.51913  0.60026  Biso   1.000  C
  H76      1.0000 0.28708  0.40540  0.59533  Biso   1.000  H
  H77      1.0000 0.31068  0.52215  0.52742  Biso   1.000  H
  C107     1.0000 0.32028  0.58734  0.55947  Biso   1.000  C
  C108     1.0000 0.27938  0.24363  0.33847  Biso   1.000  C
  C109     1.0000 0.26694  0.36629  0.33857  Biso   1.000  C
  H78      1.0000 0.28608  0.14475  0.34273  Biso   1.000  H
  C110     1.0000 0.31987  0.58831  0.58730  Biso   1.000  C
  H79      1.0000 0.30848  0.51816  0.61854  Biso   1.000  H
  C111     1.0000 0.33338  0.66666  0.54812  Biso   1.000  C
  O8       1.0000 0.29868  0.25401  0.31218  Biso   1.000  O
  N8       1.0000 0.28539  0.38186  0.31410  Biso   1.000  N
  H80      1.0000 0.25610  0.40106  0.34823  Biso   1.000  H
  C112     1.0000 0.33338  0.66666  0.59847  Biso   1.000  C
  H81      1.0000 0.33338  0.66666  0.52884  Biso   1.000  H
  C113     1.0000 0.26706  0.67976  0.55947  Biso   1.000  C
  C114     1.0000 0.41268  0.73294  0.55947  Biso   1.000  C
  H82      1.0000 0.30247  0.29735  0.30693  Biso   1.000  H
  C115     1.0000 0.29413  0.45140  0.30177  Biso   1.000  C
  H83      1.0000 0.33338  0.66666  0.61774  Biso   1.000  H
  C116     1.0000 0.26844  0.68012  0.58730  Biso   1.000  C
  C117     1.0000 0.41167  0.73155  0.58730  Biso   1.000  C
  C118     1.0000 0.21119  0.69014  0.54571  Biso   1.000  C
  C119     1.0000 0.47900  0.78884  0.54571  Biso   1.000  C
  C120     1.0000 0.30613  0.52003  0.31587  Biso   1.000  C
  C121     1.0000 0.29473  0.45291  0.27445  Biso   1.000  C
  C122     1.0000 0.21088  0.69171  0.60026  Biso   1.000  C
  C123     1.0000 0.48088  0.78914  0.60026  Biso   1.000  C
  C124     1.0000 0.15396  0.70197  0.55888  Biso   1.000  C
  H84      1.0000 0.21148  0.68936  0.52742  Biso   1.000  H
  C125     1.0000 0.54797  0.84606  0.55888  Biso   1.000  C
  H85      1.0000 0.47786  0.78853  0.52742  Biso   1.000  H
  C126     1.0000 0.31755  0.58764  0.30206  Biso   1.000  C
  H86      1.0000 0.30639  0.52003  0.33413  Biso   1.000  H
  H87      1.0000 0.28734  0.40782  0.26522  Biso   1.000  H
  C127     1.0000 0.30613  0.52046  0.26086  Biso   1.000  C
  H88      1.0000 0.20969  0.69153  0.61854  Biso   1.000  H
  C128     1.0000 0.15527  0.70366  0.58628  Biso   1.000  C
  H89      1.0000 0.48185  0.79034  0.61854  Biso   1.000  H
  C129     1.0000 0.54835  0.84473  0.58628  Biso   1.000  C
  N9       1.0000 0.09436  0.71211  0.54616  Biso   1.000  N
  N10      1.0000 0.61780  0.90564  0.54616  Biso   1.000  N
  C130     1.0000 0.33338  0.66666  0.31345  Biso   1.000  C
  C131     1.0000 0.31750  0.58722  0.27439  Biso   1.000  C
  H90      1.0000 0.30597  0.52046  0.24264  Biso   1.000  H
  H91      1.0000 0.11836  0.71296  0.59533  Biso   1.000  H
  H92      1.0000 0.59455  0.88161  0.59533  Biso   1.000  H
  C132     1.0000 0.07778  0.69714  0.52118  Biso   1.000  C
  C133     1.0000 0.61936  0.92224  0.52118  Biso   1.000  C
  H93      1.0000 0.33338  0.66666  0.33274  Biso   1.000  H
  C134     1.0000 0.27009  0.68247  0.30206  Biso   1.000  C
  C135     1.0000 0.41237  0.72992  0.30206  Biso   1.000  C
  C136     1.0000 0.33338  0.66666  0.26269  Biso   1.000  C
  C137     1.0000 0.02219  0.71163  0.50765  Biso   1.000  C
  H94      1.0000 0.10436  0.67565  0.51183  Biso   1.000  H
  C138     1.0000 0.68945  0.97783  0.50765  Biso   1.000  C
  H95      1.0000 0.57123  0.89562  0.51183  Biso   1.000  H
  C139     1.0000 0.21390  0.69388  0.31587  Biso   1.000  C
  C140     1.0000 0.26972  0.68247  0.27439  Biso   1.000  C
  C141     1.0000 0.47997  0.78606  0.31587  Biso   1.000  C
  C142     1.0000 0.41277  0.73028  0.27439  Biso   1.000  C
  H96      1.0000 0.33338  0.66666  0.24343  Biso   1.000  H
  C143     1.0000 0.01011  0.69763  0.48023  Biso   1.000  C
  C144     1.0000 0.97569  0.73855  0.52059  Biso   1.000  C
  C145     1.0000 0.68751  0.98985  0.48023  Biso   1.000  C
  C146     1.0000 0.76282  0.02431  0.52059  Biso   1.000  C
  H97      1.0000 0.21367  0.69364  0.33413  Biso   1.000  H
  C147     1.0000 0.15725  0.70583  0.30177  Biso   1.000  C
  C148     1.0000 0.21432  0.69388  0.26086  Biso   1.000  C
  H98      1.0000 0.47996  0.78636  0.33413  Biso   1.000  H
  C149     1.0000 0.54861  0.84274  0.30177  Biso   1.000  C
  C150     1.0000 0.47954  0.78564  0.26086  Biso   1.000  C
  C151     1.0000 0.95815  0.71175  0.46608  Biso   1.000  C
  H99      1.0000 0.03926  0.67783  0.47154  Biso   1.000  H
  C152     1.0000 0.92266  0.75231  0.50651  Biso   1.000  C
  O9       1.0000 0.98326  0.75171  0.54685  Biso   1.000  O
  C153     1.0000 0.75354  0.04182  0.46608  Biso   1.000  C
  H100     1.0000 0.63856  0.96075  0.47154  Biso   1.000  H
  C154     1.0000 0.82963  0.07731  0.50651  Biso   1.000  C
  O10      1.0000 0.76841  0.01677  0.54685  Biso   1.000  O
  N11      1.0000 0.09643  0.71459  0.31410  Biso   1.000  N
  C155     1.0000 0.15823  0.70529  0.27445  Biso   1.000  C
  H101     1.0000 0.21443  0.69400  0.24264  Biso   1.000  H
  N12      1.0000 0.61816  0.90353  0.31410  Biso   1.000  N
  C156     1.0000 0.54708  0.84177  0.27445  Biso   1.000  C
  H102     1.0000 0.47954  0.78552  0.24264  Biso   1.000  H
  C157     1.0000 0.94811  0.69763  0.43682  Biso   1.000  C
  C158     1.0000 0.91458  0.74097  0.47963  Biso   1.000  C
  H103     1.0000 0.89147  0.76982  0.51523  Biso   1.000  H
  H104     1.0000 0.97786  0.71060  0.55454  Biso   1.000  H
  C159     1.0000 0.74954  0.05190  0.43682  Biso   1.000  C
  C160     1.0000 0.82638  0.08546  0.47963  Biso   1.000  C
  H105     1.0000 0.87832  0.10852  0.51523  Biso   1.000  H
  H106     1.0000 0.73272  0.02214  0.55454  Biso   1.000  H
  C161     1.0000 0.09934  0.73306  0.33857  Biso   1.000  C
  H107     1.0000 0.12046  0.71266  0.26522  Biso   1.000  H
  C162     1.0000 0.63373  0.90069  0.33857  Biso   1.000  C
  H108     1.0000 0.59217  0.87956  0.26522  Biso   1.000  H
  C163     1.0000 0.98631  0.77350  0.42113  Biso   1.000  C
  H109     1.0000 0.97154  0.66491  0.43163  Biso   1.000  H
  H110     1.0000 0.89099  0.66744  0.43273  Biso   1.000  H
  H111     1.0000 0.87970  0.75286  0.47044  Biso   1.000  H
  C164     1.0000 0.78715  0.01369  0.42113  Biso   1.000  C
  H112     1.0000 0.69331  0.02842  0.43163  Biso   1.000  H
  H113     1.0000 0.77642  0.10901  0.43273  Biso   1.000  H
  H114     1.0000 0.87316  0.12035  0.47044  Biso   1.000  H
  H115     1.0000 0.14498  0.74392  0.34823  Biso   1.000  H
  C165     1.0000 0.03508  0.73753  0.35161  Biso   1.000  C
  H116     1.0000 0.59899  0.85505  0.34823  Biso   1.000  H
  C166     1.0000 0.70244  0.96492  0.35161  Biso   1.000  C
  C167     1.0000 0.98163  0.75974  0.39204  Biso   1.000  C
  H117     1.0000 0.04259  0.80556  0.42613  Biso   1.000  H
  H118     1.0000 0.96018  0.80435  0.42533  Biso   1.000  H
  C168     1.0000 0.77811  0.01840  0.39204  Biso   1.000  C
  H119     1.0000 0.76294  0.95743  0.42613  Biso   1.000  H
  H120     1.0000 0.84413  0.03983  0.42533  Biso   1.000  H
  C169     1.0000 0.04147  0.75563  0.37853  Biso   1.000  C
  C170     1.0000 0.96426  0.72062  0.33847  Biso   1.000  C
  C171     1.0000 0.71419  0.95852  0.37853  Biso   1.000  C
  C172     1.0000 0.75630  0.03572  0.33847  Biso   1.000  C
  C173     1.0000 0.91175  0.74211  0.37806  Biso   1.000  C
  C174     1.0000 0.83039  0.08824  0.37806  Biso   1.000  C
  H121     1.0000 0.08778  0.76523  0.38753  Biso   1.000  H
  O11      1.0000 0.95534  0.70131  0.31218  Biso   1.000  O
  C175     1.0000 0.90526  0.72400  0.35167  Biso   1.000  C
  H122     1.0000 0.67745  0.91222  0.38753  Biso   1.000  H
  O12      1.0000 0.74602  0.04466  0.31218  Biso   1.000  O
  C176     1.0000 0.81875  0.09476  0.35167  Biso   1.000  C
  H123     1.0000 0.86924  0.74272  0.38674  Biso   1.000  H
  H124     1.0000 0.87349  0.13074  0.38674  Biso   1.000  H
  H125     1.0000 0.99484  0.69750  0.30693  Biso   1.000  H
  H126     1.0000 0.85866  0.71392  0.34273  Biso   1.000  H
  H127     1.0000 0.70267  0.00512  0.30693  Biso   1.000  H
  H128     1.0000 0.85527  0.14136  0.34273  Biso   1.000  H
  C177     1.0000 0.63093  0.05397  0.67180  Biso   1.000  C
  C178     1.0000 0.63088  0.05397  0.67180  Biso   1.000  C
  H129     1.0000 0.66151  0.03085  0.64026  Biso   1.000  H
  H130     1.0000 0.66154  0.03091  0.64026  Biso   1.000  H
  C179     1.0000 0.70180  0.07087  0.68494  Biso   1.000  C
  O13      1.0000 0.62201  0.03465  0.64550  Biso   1.000  O
  C180     1.0000 0.57193  0.05735  0.68501  Biso   1.000  C
  C181     1.0000 0.57191  0.05741  0.68501  Biso   1.000  C
  C182     1.0000 0.76601  0.06640  0.67192  Biso   1.000  C
  C183     1.0000 0.76596  0.06640  0.67192  Biso   1.000  C
  C184     1.0000 0.70809  0.08898  0.71186  Biso   1.000  C
  C185     1.0000 0.57842  0.07545  0.71139  Biso   1.000  C
  H131     1.0000 0.52533  0.04726  0.67606  Biso   1.000  H
  H132     1.0000 0.52538  0.04726  0.67606  Biso   1.000  H
  N13      1.0000 0.76310  0.04793  0.64743  Biso   1.000  N
  H133     1.0000 0.81165  0.07727  0.68156  Biso   1.000  H
  H134     1.0000 0.81160  0.07727  0.68156  Biso   1.000  H
  C186     1.0000 0.64827  0.09302  0.72537  Biso   1.000  C
  H135     1.0000 0.75445  0.09857  0.72087  Biso   1.000  H
  H136     1.0000 0.75439  0.09857  0.72087  Biso   1.000  H
  C187     1.0000 0.64824  0.09308  0.72537  Biso   1.000  C
  H137     1.0000 0.53591  0.07606  0.72007  Biso   1.000  H
  C188     1.0000 0.82386  0.03918  0.63510  Biso   1.000  C
  C189     1.0000 0.65298  0.10684  0.75445  Biso   1.000  C
  C190     1.0000 0.65304  0.10684  0.75445  Biso   1.000  C
  C191     1.0000 0.82485  0.03863  0.60780  Biso   1.000  C
  C192     1.0000 0.88057  0.02722  0.64920  Biso   1.000  C
  C193     1.0000 0.61478  0.03097  0.77014  Biso   1.000  C
  H138     1.0000 0.70923  0.13884  0.75946  Biso   1.000  H
  C194     1.0000 0.61481  0.03103  0.77014  Biso   1.000  C
  H139     1.0000 0.70926  0.13890  0.75946  Biso   1.000  H
  H140     1.0000 0.70921  0.13890  0.75946  Biso   1.000  H
  H141     1.0000 0.62679  0.13769  0.75867  Biso   1.000  H
  C195     1.0000 0.88099  0.02722  0.59419  Biso   1.000  C
  H142     1.0000 0.78710  0.04594  0.59857  Biso   1.000  H
  H143     1.0000 0.78713  0.04600  0.59857  Biso   1.000  H
  C196     1.0000 0.93676  0.01582  0.63539  Biso   1.000  C
  C197     1.0000 0.93671  0.01582  0.63539  Biso   1.000  C
  H144     1.0000 0.88034  0.02698  0.66746  Biso   1.000  H
  H145     1.0000 0.88029  0.02698  0.66746  Biso   1.000  H
  C198     1.0000 0.62483  0.04509  0.79942  Biso   1.000  C
  H146     1.0000 0.63826  0.99825  0.76496  Biso   1.000  H
  H147     1.0000 0.55761  0.00078  0.76606  Biso   1.000  H
  H148     1.0000 0.88110  0.02734  0.57597  Biso   1.000  H
  H149     1.0000 0.88113  0.02741  0.57597  Biso   1.000  H
  C199     1.0000 0.93634  0.01582  0.60772  Biso   1.000  C
  C200     1.0000 0.00007  0.99994  0.64680  Biso   1.000  C
  C201     1.0000 0.00005  0.00000  0.64680  Biso   1.000  C
  C202     1.0000 0.67678  0.03097  0.81358  Biso   1.000  C
  C203     1.0000 0.58120  0.07431  0.81295  Biso   1.000  C
  C204     1.0000 0.67681  0.03103  0.81358  Biso   1.000  C
  C205     1.0000 0.00007  0.99994  0.59602  Biso   1.000  C
  C206     1.0000 0.00005  0.00000  0.59602  Biso   1.000  C
  C207     1.0000 0.98425  0.92092  0.63539  Biso   1.000  C
  C208     1.0000 0.98417  0.92098  0.63539  Biso   1.000  C
  H150     1.0000 0.00007  0.99994  0.66606  Biso   1.000  H
  H151     1.0000 0.00005  0.00000  0.66606  Biso   1.000  H
  C209     1.0000 0.07905  0.06326  0.63539  Biso   1.000  C
  C210     1.0000 0.58933  0.08566  0.83984  Biso   1.000  C
  H152     1.0000 0.54637  0.08620  0.80376  Biso   1.000  H
  C211     1.0000 0.58928  0.08566  0.83984  Biso   1.000  C
  H153     1.0000 0.54631  0.08620  0.80376  Biso   1.000  H
  C212     1.0000 0.68891  0.04497  0.84100  Biso   1.000  C
  H154     1.0000 0.70588  0.01117  0.80486  Biso   1.000  H
  C213     1.0000 0.98422  0.92056  0.60772  Biso   1.000  C
  C214     1.0000 0.98412  0.92056  0.60772  Biso   1.000  C
  H155     1.0000 0.00007  0.99994  0.57677  Biso   1.000  H
  H156     1.0000 0.00005  0.00000  0.57677  Biso   1.000  H
  C215     1.0000 0.07944  0.06362  0.60772  Biso   1.000  C
  C216     1.0000 0.07949  0.06362  0.60772  Biso   1.000  C
  C217     1.0000 0.97285  0.85338  0.64920  Biso   1.000  C
  C218     1.0000 0.97280  0.85338  0.64920  Biso   1.000  C
  C219     1.0000 0.14664  0.11940  0.64920  Biso   1.000  C
  C220     1.0000 0.14658  0.11940  0.64920  Biso   1.000  C
  C221     1.0000 0.64236  0.07189  0.85392  Biso   1.000  C
  H157     1.0000 0.55809  0.10316  0.84858  Biso   1.000  H
  C222     1.0000 0.74440  0.03048  0.85451  Biso   1.000  C
  C223     1.0000 0.97285  0.85380  0.59419  Biso   1.000  C
  C224     1.0000 0.97275  0.85380  0.59419  Biso   1.000  C
  C225     1.0000 0.14622  0.11898  0.59419  Biso   1.000  C
  C226     1.0000 0.14616  0.11898  0.59419  Biso   1.000  C
  H158     1.0000 0.97311  0.85338  0.66746  Biso   1.000  H
  C227     1.0000 0.96085  0.78474  0.63510  Biso   1.000  C
  H159     1.0000 0.97301  0.85338  0.66746  Biso   1.000  H
  H160     1.0000 0.14660  0.11964  0.66746  Biso   1.000  H
  H161     1.0000 0.14663  0.11970  0.66746  Biso   1.000  H
  C228     1.0000 0.21523  0.17608  0.63510  Biso   1.000  C
  O14      1.0000 0.64988  0.08505  0.88019  Biso   1.000  O
  N14      1.0000 0.76098  0.04545  0.87948  Biso   1.000  N
  H162     1.0000 0.77108  0.00899  0.84516  Biso   1.000  H
  C229     1.0000 0.96145  0.78625  0.60780  Biso   1.000  C
  C230     1.0000 0.96135  0.78625  0.60780  Biso   1.000  C
  H163     1.0000 0.97269  0.85380  0.57597  Biso   1.000  H
  H164     1.0000 0.14621  0.11886  0.57597  Biso   1.000  H
  C231     1.0000 0.21370  0.17512  0.60780  Biso   1.000  C
  N15      1.0000 0.95207  0.71520  0.64743  Biso   1.000  N
  N16      1.0000 0.28483  0.23687  0.64743  Biso   1.000  N
  N17      1.0000 0.28481  0.23693  0.64743  Biso   1.000  N
  H165     1.0000 0.64454  0.04394  0.88787  Biso   1.000  H
  H166     1.0000 0.64451  0.04401  0.88787  Biso   1.000  H
  C232     1.0000 0.82060  0.03525  0.89221  Biso   1.000  C
  C233     1.0000 0.82068  0.03531  0.89221  Biso   1.000  C
  C234     1.0000 0.82063  0.03531  0.89221  Biso   1.000  C
  H167     1.0000 0.95407  0.74116  0.59857  Biso   1.000  H
  H168     1.0000 0.25881  0.21284  0.59857  Biso   1.000  H
  H169     1.0000 0.25884  0.21290  0.59857  Biso   1.000  H
  C235     1.0000 0.93367  0.69963  0.67192  Biso   1.000  C
  C236     1.0000 0.30040  0.23403  0.67192  Biso   1.000  C
  C237     1.0000 0.30035  0.23403  0.67192  Biso   1.000  C
  C238     1.0000 0.82191  0.03694  0.91962  Biso   1.000  C
  C239     1.0000 0.87786  0.02348  0.87903  Biso   1.000  C
  C240     1.0000 0.82194  0.03700  0.91962  Biso   1.000  C
  C241     1.0000 0.87781  0.02348  0.87903  Biso   1.000  C
  C242     1.0000 0.92919  0.63087  0.68494  Biso   1.000  C
  H170     1.0000 0.92277  0.73440  0.68156  Biso   1.000  H
  C243     1.0000 0.92909  0.63087  0.68494  Biso   1.000  C
  C244     1.0000 0.36911  0.29826  0.68494  Biso   1.000  C
  H171     1.0000 0.26561  0.18840  0.68156  Biso   1.000  H
  C245     1.0000 0.87755  0.02505  0.93361  Biso   1.000  C
  H172     1.0000 0.78500  0.04624  0.92866  Biso   1.000  H
  C246     1.0000 0.87749  0.02505  0.93361  Biso   1.000  C
  H173     1.0000 0.78503  0.04630  0.92866  Biso   1.000  H
  H174     1.0000 0.87815  0.02270  0.86077  Biso   1.000  H
  C247     1.0000 0.93370  0.01304  0.89280  Biso   1.000  C
  C248     1.0000 0.93373  0.01310  0.89280  Biso   1.000  C
  C249     1.0000 0.94605  0.57697  0.67180  Biso   1.000  C
  C250     1.0000 0.91105  0.61916  0.71186  Biso   1.000  C
  C251     1.0000 0.94599  0.57697  0.67180  Biso   1.000  C
  C252     1.0000 0.42302  0.36906  0.67180  Biso   1.000  C
  C253     1.0000 0.38086  0.29186  0.71186  Biso   1.000  C
  C254     1.0000 0.38081  0.29186  0.71186  Biso   1.000  C
  C255     1.0000 0.93511  0.01346  0.92063  Biso   1.000  C
  H175     1.0000 0.87636  0.02487  0.95187  Biso   1.000  H
  H176     1.0000 0.87631  0.02487  0.95187  Biso   1.000  H
  C256     1.0000 0.00007  0.99994  0.88145  Biso   1.000  C
  C257     1.0000 0.00005  0.00000  0.88145  Biso   1.000  C
  O15      1.0000 0.96535  0.58735  0.64550  Biso   1.000  O
  C258     1.0000 0.94265  0.51455  0.68501  Biso   1.000  C
  C259     1.0000 0.94260  0.51455  0.68501  Biso   1.000  C
  H177     1.0000 0.90143  0.65587  0.72087  Biso   1.000  H
  C260     1.0000 0.90700  0.55524  0.72537  Biso   1.000  C
  O16      1.0000 0.41269  0.37800  0.64550  Biso   1.000  O
  O17      1.0000 0.41264  0.37800  0.64550  Biso   1.000  O
  C261     1.0000 0.48542  0.42810  0.68501  Biso   1.000  C
  C262     1.0000 0.48547  0.42810  0.68501  Biso   1.000  C
  C263     1.0000 0.44478  0.35174  0.72537  Biso   1.000  C
  H178     1.0000 0.34412  0.24556  0.72087  Biso   1.000  H
  C264     1.0000 0.00007  0.99994  0.93180  Biso   1.000  C
  C265     1.0000 0.00005  0.00000  0.93180  Biso   1.000  C
  C266     1.0000 0.98700  0.92068  0.89280  Biso   1.000  C
  C267     1.0000 0.98690  0.92068  0.89280  Biso   1.000  C
  H179     1.0000 0.00007  0.99994  0.86216  Biso   1.000  H
  H180     1.0000 0.00005  0.00000  0.86216  Biso   1.000  H
  C268     1.0000 0.07935  0.06628  0.89280  Biso   1.000  C
  C269     1.0000 0.07930  0.06628  0.89280  Biso   1.000  C
  H181     1.0000 0.96920  0.63069  0.64026  Biso   1.000  H
  H182     1.0000 0.95281  0.47809  0.67606  Biso   1.000  H
  C270     1.0000 0.92452  0.50296  0.71139  Biso   1.000  C
  H183     1.0000 0.95270  0.47809  0.67606  Biso   1.000  H
  C271     1.0000 0.89319  0.54612  0.75445  Biso   1.000  C
  C272     1.0000 0.89309  0.54612  0.75445  Biso   1.000  C
  H184     1.0000 0.36935  0.33846  0.64026  Biso   1.000  H
  H185     1.0000 0.36929  0.33846  0.64026  Biso   1.000  H
  C273     1.0000 0.49706  0.42158  0.71139  Biso   1.000  C
  H186     1.0000 0.52194  0.47470  0.67606  Biso   1.000  H
  C274     1.0000 0.49701  0.42158  0.71139  Biso   1.000  C
  C275     1.0000 0.45388  0.34703  0.75445  Biso   1.000  C
  C276     1.0000 0.98660  0.92165  0.92063  Biso   1.000  C
  C277     1.0000 0.98652  0.92171  0.92063  Biso   1.000  C
  H187     1.0000 0.00007  0.99994  0.95106  Biso   1.000  H
  H188     1.0000 0.00005  0.00000  0.95106  Biso   1.000  H
  C278     1.0000 0.07834  0.06489  0.92063  Biso   1.000  C
  C279     1.0000 0.97652  0.85434  0.87903  Biso   1.000  C
  C280     1.0000 0.14567  0.12218  0.87903  Biso   1.000  C
  C281     1.0000 0.14562  0.12218  0.87903  Biso   1.000  C
  H189     1.0000 0.92393  0.45986  0.72007  Biso   1.000  H
  C282     1.0000 0.96901  0.58379  0.77014  Biso   1.000  C
  H190     1.0000 0.86115  0.57039  0.75946  Biso   1.000  H
  H191     1.0000 0.86110  0.57039  0.75946  Biso   1.000  H
  H192     1.0000 0.86233  0.48920  0.75867  Biso   1.000  H
  H193     1.0000 0.54016  0.46408  0.72007  Biso   1.000  H
  H194     1.0000 0.54011  0.46408  0.72007  Biso   1.000  H
  H195     1.0000 0.42961  0.29077  0.75946  Biso   1.000  H
  H196     1.0000 0.51086  0.37317  0.75867  Biso   1.000  H
  C283     1.0000 0.41621  0.38524  0.77014  Biso   1.000  C
  H197     1.0000 0.51080  0.37317  0.75867  Biso   1.000  H
  C284     1.0000 0.41626  0.38524  0.77014  Biso   1.000  C
  C285     1.0000 0.97496  0.85247  0.93361  Biso   1.000  C
  C286     1.0000 0.14755  0.12248  0.93361  Biso   1.000  C
  C287     1.0000 0.14750  0.12248  0.93361  Biso   1.000  C
  H198     1.0000 0.97735  0.85549  0.86077  Biso   1.000  H
  C288     1.0000 0.96476  0.78535  0.89221  Biso   1.000  C
  C289     1.0000 0.21464  0.17940  0.89221  Biso   1.000  C
  H199     1.0000 0.14453  0.12187  0.86077  Biso   1.000  H
  C290     1.0000 0.95496  0.57975  0.79942  Biso   1.000  C
  H200     1.0000 0.99930  0.55687  0.76606  Biso   1.000  H
  C291     1.0000 0.95486  0.57975  0.79942  Biso   1.000  C
  H201     1.0000 0.99920  0.55687  0.76606  Biso   1.000  H
  H202     1.0000 0.00181  0.63999  0.76496  Biso   1.000  H
  H203     1.0000 0.00171  0.63999  0.76496  Biso   1.000  H
  H204     1.0000 0.36003  0.36176  0.76496  Biso   1.000  H
  H205     1.0000 0.44314  0.44235  0.76606  Biso   1.000  H
  C292     1.0000 0.42021  0.37516  0.79942  Biso   1.000  C
  H206     1.0000 0.35998  0.36176  0.76496  Biso   1.000  H
  H207     1.0000 0.44312  0.44241  0.76606  Biso   1.000  H
  C293     1.0000 0.96312  0.78498  0.91962  Biso   1.000  C
  C294     1.0000 0.96307  0.78498  0.91962  Biso   1.000  C
  H208     1.0000 0.97518  0.85144  0.95187  Biso   1.000  H
  H209     1.0000 0.97510  0.85150  0.95187  Biso   1.000  H
  C295     1.0000 0.21502  0.17807  0.91962  Biso   1.000  C
  H210     1.0000 0.14852  0.12369  0.95187  Biso   1.000  H
  N18      1.0000 0.95455  0.71557  0.87948  Biso   1.000  N
  N19      1.0000 0.28448  0.23898  0.87948  Biso   1.000  N
  N20      1.0000 0.28442  0.23898  0.87948  Biso   1.000  N
  C296     1.0000 0.92573  0.50695  0.81295  Biso   1.000  C
  C297     1.0000 0.96904  0.64585  0.81358  Biso   1.000  C
  C298     1.0000 0.49306  0.41880  0.81295  Biso   1.000  C
  C299     1.0000 0.35413  0.32319  0.81358  Biso   1.000  C
  C300     1.0000 0.49311  0.41880  0.81295  Biso   1.000  C
  H211     1.0000 0.95380  0.73875  0.92866  Biso   1.000  H
  H212     1.0000 0.95372  0.73881  0.92866  Biso   1.000  H
  H213     1.0000 0.95369  0.73875  0.92866  Biso   1.000  H
  H214     1.0000 0.26122  0.21496  0.92866  Biso   1.000  H
  C301     1.0000 0.96955  0.71400  0.85451  Biso   1.000  C
  C302     1.0000 0.28603  0.25558  0.85451  Biso   1.000  C
  C303     1.0000 0.91437  0.50369  0.83984  Biso   1.000  C
  H215     1.0000 0.91389  0.46017  0.80376  Biso   1.000  H
  H216     1.0000 0.91378  0.46017  0.80376  Biso   1.000  H
  C304     1.0000 0.95505  0.64391  0.84100  Biso   1.000  C
  H217     1.0000 0.98883  0.69474  0.80486  Biso   1.000  H
  H218     1.0000 0.98881  0.69480  0.80486  Biso   1.000  H
  C305     1.0000 0.49635  0.41066  0.83984  Biso   1.000  C
  H219     1.0000 0.53983  0.45369  0.80376  Biso   1.000  H
  C306     1.0000 0.49630  0.41066  0.83984  Biso   1.000  C
  C307     1.0000 0.35612  0.31118  0.84100  Biso   1.000  C
  H220     1.0000 0.30524  0.29409  0.80486  Biso   1.000  H
  C308     1.0000 0.35607  0.31118  0.84100  Biso   1.000  C
  H221     1.0000 0.99101  0.76205  0.84516  Biso   1.000  H
  H222     1.0000 0.99104  0.76211  0.84516  Biso   1.000  H
  H223     1.0000 0.23791  0.22896  0.84516  Biso   1.000  H
  C309     1.0000 0.92818  0.57051  0.85392  Biso   1.000  C
  H224     1.0000 0.89686  0.45497  0.84858  Biso   1.000  H
  C310     1.0000 0.92808  0.57051  0.85392  Biso   1.000  C
  H225     1.0000 0.89676  0.45497  0.84858  Biso   1.000  H
  C311     1.0000 0.42949  0.35766  0.85392  Biso   1.000  C
  H226     1.0000 0.54505  0.44186  0.84858  Biso   1.000  H
  H227     1.0000 0.54499  0.44186  0.84858  Biso   1.000  H
  O18      1.0000 0.91499  0.56484  0.88019  Biso   1.000  O
  O19      1.0000 0.91492  0.56490  0.88019  Biso   1.000  O
  O20      1.0000 0.43513  0.35011  0.88019  Biso   1.000  O
  H228     1.0000 0.95602  0.60057  0.88787  Biso   1.000  H
  H229     1.0000 0.39945  0.35548  0.88787  Biso   1.000  H
  H230     1.0000 0.39939  0.35548  0.88787  Biso   1.000  H
  C312     1.0000 0.17518  0.96143  0.39220  Biso   1.000  C
  C313     1.0000 0.17614  0.96082  0.36490  Biso   1.000  C
  C314     1.0000 0.11901  0.97278  0.40581  Biso   1.000  C
  H231     1.0000 0.21296  0.95406  0.40143  Biso   1.000  H
  H232     1.0000 0.21285  0.95406  0.40143  Biso   1.000  H
  C315     1.0000 0.11943  0.97278  0.35080  Biso   1.000  C
  N21      1.0000 0.23690  0.95207  0.35257  Biso   1.000  N
  C316     1.0000 0.17515  0.96137  0.39220  Biso   1.000  C
  N22      1.0000 0.23684  0.95207  0.35257  Biso   1.000  N
  C317     1.0000 0.06366  0.98418  0.39228  Biso   1.000  C
  H233     1.0000 0.11895  0.97266  0.42403  Biso   1.000  H
  H234     1.0000 0.11885  0.97266  0.42403  Biso   1.000  H
  C318     1.0000 0.06324  0.98418  0.36461  Biso   1.000  C
  C319     1.0000 0.06327  0.98425  0.36461  Biso   1.000  C
  H235     1.0000 0.11966  0.97302  0.33254  Biso   1.000  H
  H236     1.0000 0.11961  0.97302  0.33254  Biso   1.000  H
  C320     1.0000 0.23404  0.93360  0.32808  Biso   1.000  C
  C321     1.0000 0.23407  0.93366  0.32808  Biso   1.000  C
  C322     1.0000 0.99998  0.00006  0.40398  Biso   1.000  C
  C323     1.0000 0.99998  0.00006  0.35320  Biso   1.000  C
  C324     1.0000 0.29825  0.92913  0.31506  Biso   1.000  C
  H237     1.0000 0.18840  0.92273  0.31844  Biso   1.000  H
  C325     1.0000 0.01583  0.07944  0.39228  Biso   1.000  C
  C326     1.0000 0.01578  0.07944  0.39228  Biso   1.000  C
  C327     1.0000 0.92062  0.93638  0.39228  Biso   1.000  C
  C328     1.0000 0.92056  0.93638  0.39228  Biso   1.000  C
  H238     1.0000 0.99998  0.00006  0.42323  Biso   1.000  H
  C329     1.0000 0.01580  0.07908  0.36461  Biso   1.000  C
  C330     1.0000 0.92101  0.93674  0.36461  Biso   1.000  C
  C331     1.0000 0.92095  0.93674  0.36461  Biso   1.000  C
  H239     1.0000 0.99998  0.00006  0.33394  Biso   1.000  H
  C332     1.0000 0.36912  0.94603  0.32820  Biso   1.000  C
  C333     1.0000 0.29186  0.91102  0.28814  Biso   1.000  C
  C334     1.0000 0.02720  0.14620  0.40581  Biso   1.000  C
  C335     1.0000 0.85378  0.88102  0.40581  Biso   1.000  C
  C336     1.0000 0.02720  0.14662  0.35080  Biso   1.000  C
  C337     1.0000 0.85336  0.88060  0.35080  Biso   1.000  C
  O21      1.0000 0.37799  0.96535  0.35450  Biso   1.000  O
  C338     1.0000 0.42812  0.94265  0.31499  Biso   1.000  C
  C339     1.0000 0.35179  0.90698  0.27463  Biso   1.000  C
  H240     1.0000 0.24561  0.90143  0.27913  Biso   1.000  H
  C340     1.0000 0.03860  0.21375  0.39220  Biso   1.000  C
  H241     1.0000 0.02739  0.14626  0.42403  Biso   1.000  H
  H242     1.0000 0.02734  0.14626  0.42403  Biso   1.000  H
  C341     1.0000 0.78630  0.82488  0.39220  Biso   1.000  C
  H243     1.0000 0.85384  0.88114  0.42403  Biso   1.000  H
  H244     1.0000 0.85374  0.88114  0.42403  Biso   1.000  H
  C342     1.0000 0.03920  0.21526  0.36490  Biso   1.000  C
  C343     1.0000 0.03915  0.21526  0.36490  Biso   1.000  C
  H245     1.0000 0.02694  0.14662  0.33254  Biso   1.000  H
  H246     1.0000 0.85345  0.88036  0.33254  Biso   1.000  H
  C344     1.0000 0.78477  0.82392  0.36490  Biso   1.000  C
  H247     1.0000 0.85335  0.88036  0.33254  Biso   1.000  H
  H248     1.0000 0.33854  0.96915  0.35974  Biso   1.000  H
  H249     1.0000 0.33844  0.96915  0.35974  Biso   1.000  H
  H250     1.0000 0.47472  0.95274  0.32394  Biso   1.000  H
  C345     1.0000 0.42163  0.92455  0.28861  Biso   1.000  C
  H251     1.0000 0.47462  0.95274  0.32394  Biso   1.000  H
  C346     1.0000 0.42158  0.92455  0.28861  Biso   1.000  C
  C347     1.0000 0.34702  0.89316  0.24555  Biso   1.000  C
  H252     1.0000 0.04593  0.25884  0.40143  Biso   1.000  H
  H253     1.0000 0.74124  0.78716  0.40143  Biso   1.000  H
  H254     1.0000 0.74114  0.78716  0.40143  Biso   1.000  H
  N23      1.0000 0.04793  0.28480  0.35257  Biso   1.000  N
  N24      1.0000 0.04791  0.28486  0.35257  Biso   1.000  N
  N25      1.0000 0.71517  0.76313  0.35257  Biso   1.000  N
  H255     1.0000 0.46409  0.92394  0.27993  Biso   1.000  H
  H256     1.0000 0.46404  0.92394  0.27993  Biso   1.000  H
  C348     1.0000 0.38522  0.96903  0.22986  Biso   1.000  C
  H257     1.0000 0.29082  0.86116  0.24054  Biso   1.000  H
  H258     1.0000 0.37321  0.86231  0.24133  Biso   1.000  H
  H259     1.0000 0.37324  0.86237  0.24133  Biso   1.000  H
  C349     1.0000 0.06639  0.30037  0.32808  Biso   1.000  C
  C350     1.0000 0.06633  0.30037  0.32808  Biso   1.000  C
  C351     1.0000 0.69968  0.76603  0.32808  Biso   1.000  C
  C352     1.0000 0.37523  0.95491  0.20058  Biso   1.000  C
  H260     1.0000 0.44239  0.99922  0.23394  Biso   1.000  H
  C353     1.0000 0.37512  0.95491  0.20058  Biso   1.000  C
  H261     1.0000 0.36179  0.00175  0.23504  Biso   1.000  H
  H262     1.0000 0.36174  0.00175  0.23504  Biso   1.000  H
  C354     1.0000 0.07086  0.36913  0.31506  Biso   1.000  C
  H263     1.0000 0.07726  0.26566  0.31844  Biso   1.000  H
  C355     1.0000 0.63094  0.70174  0.31506  Biso   1.000  C
  H264     1.0000 0.73436  0.81166  0.31844  Biso   1.000  H
  C356     1.0000 0.63089  0.70174  0.31506  Biso   1.000  C
  C357     1.0000 0.32322  0.96903  0.18642  Biso   1.000  C
  C358     1.0000 0.41880  0.92569  0.18705  Biso   1.000  C
  C359     1.0000 0.41883  0.92575  0.18705  Biso   1.000  C
  C360     1.0000 0.05395  0.42303  0.32820  Biso   1.000  C
  C361     1.0000 0.08900  0.38084  0.28814  Biso   1.000  C
  C362     1.0000 0.08895  0.38084  0.28814  Biso   1.000  C
  C363     1.0000 0.57703  0.63094  0.32820  Biso   1.000  C
  C364     1.0000 0.61914  0.70814  0.28814  Biso   1.000  C
  C365     1.0000 0.57698  0.63094  0.32820  Biso   1.000  C
  C366     1.0000 0.31120  0.95503  0.15900  Biso   1.000  C
  H265     1.0000 0.29407  0.98883  0.19514  Biso   1.000  H
  C367     1.0000 0.31112  0.95509  0.15900  Biso   1.000  C
  C368     1.0000 0.41067  0.91434  0.16016  Biso   1.000  C
  H266     1.0000 0.45366  0.91386  0.19624  Biso   1.000  H
  C369     1.0000 0.05735  0.48545  0.31499  Biso   1.000  C
  O22      1.0000 0.03468  0.41271  0.35450  Biso   1.000  O
  H267     1.0000 0.09857  0.34413  0.27913  Biso   1.000  H
  C370     1.0000 0.09308  0.44482  0.27463  Biso   1.000  C
  O23      1.0000 0.58731  0.62200  0.35450  Biso   1.000  O
  C371     1.0000 0.51461  0.57196  0.31499  Biso   1.000  C
  C372     1.0000 0.55522  0.64826  0.27463  Biso   1.000  C
  H268     1.0000 0.65588  0.75444  0.27913  Biso   1.000  H
  C373     1.0000 0.35764  0.92811  0.14608  Biso   1.000  C
  C374     1.0000 0.25560  0.96952  0.14549  Biso   1.000  C
  H269     1.0000 0.44191  0.89684  0.15142  Biso   1.000  H
  H270     1.0000 0.04728  0.52197  0.32394  Biso   1.000  H
  C375     1.0000 0.07543  0.49704  0.28861  Biso   1.000  C
  H271     1.0000 0.03089  0.36937  0.35974  Biso   1.000  H
  C376     1.0000 0.10686  0.45388  0.24555  Biso   1.000  C
  C377     1.0000 0.10691  0.45388  0.24555  Biso   1.000  C
  H272     1.0000 0.63065  0.66154  0.35974  Biso   1.000  H
  H273     1.0000 0.47809  0.52536  0.32394  Biso   1.000  H
  C378     1.0000 0.50294  0.57842  0.28861  Biso   1.000  C
  C379     1.0000 0.54618  0.65297  0.24555  Biso   1.000  C
  C380     1.0000 0.54610  0.65303  0.24555  Biso   1.000  C
  O24      1.0000 0.35012  0.91495  0.11981  Biso   1.000  O
  N26      1.0000 0.23897  0.95455  0.12052  Biso   1.000  N
  H274     1.0000 0.22897  0.99101  0.15484  Biso   1.000  H
  H275     1.0000 0.22895  0.99107  0.15484  Biso   1.000  H
  H276     1.0000 0.07607  0.54014  0.27993  Biso   1.000  H
  H277     1.0000 0.07602  0.54014  0.27993  Biso   1.000  H
  C381     1.0000 0.03099  0.41621  0.22986  Biso   1.000  C
  H278     1.0000 0.13885  0.42961  0.24054  Biso   1.000  H
  H279     1.0000 0.13770  0.51086  0.24133  Biso   1.000  H
  H280     1.0000 0.13888  0.42967  0.24054  Biso   1.000  H
  H281     1.0000 0.13765  0.51086  0.24133  Biso   1.000  H
  H282     1.0000 0.45984  0.53592  0.27993  Biso   1.000  H
  C382     1.0000 0.58382  0.61482  0.22986  Biso   1.000  C
  H283     1.0000 0.57044  0.70923  0.24054  Biso   1.000  H
  H284     1.0000 0.48920  0.62683  0.24133  Biso   1.000  H
  H285     1.0000 0.57033  0.70923  0.24054  Biso   1.000  H
  H286     1.0000 0.35552  0.95606  0.11213  Biso   1.000  H
  C383     1.0000 0.17940  0.96475  0.10779  Biso   1.000  C
  C384     1.0000 0.17935  0.96475  0.10779  Biso   1.000  C
  H287     1.0000 0.00075  0.44313  0.23394  Biso   1.000  H
  H288     1.0000 0.99827  0.36007  0.23504  Biso   1.000  H
  C385     1.0000 0.04514  0.42025  0.20058  Biso   1.000  C
  C386     1.0000 0.57979  0.62484  0.20058  Biso   1.000  C
  H289     1.0000 0.64002  0.63824  0.23504  Biso   1.000  H
  H290     1.0000 0.55691  0.55765  0.23394  Biso   1.000  H
  C387     1.0000 0.17809  0.96306  0.08038  Biso   1.000  C
  C388     1.0000 0.12219  0.97652  0.12097  Biso   1.000  C
  C389     1.0000 0.07427  0.49305  0.18705  Biso   1.000  C
  C390     1.0000 0.03096  0.35415  0.18642  Biso   1.000  C
  C391     1.0000 0.03099  0.35422  0.18642  Biso   1.000  C
  C392     1.0000 0.64587  0.67681  0.18642  Biso   1.000  C
  C393     1.0000 0.50697  0.58126  0.18705  Biso   1.000  C
  C394     1.0000 0.12251  0.97495  0.06639  Biso   1.000  C
  H291     1.0000 0.21505  0.95376  0.07134  Biso   1.000  H
  H292     1.0000 0.21495  0.95376  0.07134  Biso   1.000  H
  C395     1.0000 0.06630  0.98696  0.10720  Biso   1.000  C
  H293     1.0000 0.12190  0.97730  0.13923  Biso   1.000  H
  H294     1.0000 0.12183  0.97736  0.13923  Biso   1.000  H
  H295     1.0000 0.08616  0.53983  0.19624  Biso   1.000  H
  C396     1.0000 0.08568  0.49631  0.16016  Biso   1.000  C
  C397     1.0000 0.08566  0.49637  0.16016  Biso   1.000  C
  H296     1.0000 0.01117  0.30526  0.19514  Biso   1.000  H
  C398     1.0000 0.04495  0.35609  0.15900  Biso   1.000  C
  C399     1.0000 0.04489  0.35609  0.15900  Biso   1.000  C
  C400     1.0000 0.50370  0.58934  0.16016  Biso   1.000  C
  H297     1.0000 0.46017  0.54631  0.19624  Biso   1.000  H
  H298     1.0000 0.46020  0.54637  0.19624  Biso   1.000  H
  C401     1.0000 0.64388  0.68882  0.15900  Biso   1.000  C
  C402     1.0000 0.64391  0.68888  0.15900  Biso   1.000  C
  H299     1.0000 0.69479  0.70597  0.19514  Biso   1.000  H
  C403     1.0000 0.06494  0.98654  0.07937  Biso   1.000  C
  C404     1.0000 0.06484  0.98654  0.07937  Biso   1.000  C
  H300     1.0000 0.12364  0.97513  0.04813  Biso   1.000  H
  C405     1.0000 0.99998  0.00006  0.11855  Biso   1.000  C
  H301     1.0000 0.10319  0.54503  0.15142  Biso   1.000  H
  C406     1.0000 0.07182  0.42949  0.14608  Biso   1.000  C
  H302     1.0000 0.10314  0.54503  0.15142  Biso   1.000  H
  C407     1.0000 0.03048  0.28606  0.14549  Biso   1.000  C
  H303     1.0000 0.45501  0.55814  0.15142  Biso   1.000  H
  C408     1.0000 0.57054  0.64240  0.14608  Biso   1.000  C
  C409     1.0000 0.71402  0.74442  0.14549  Biso   1.000  C
  C410     1.0000 0.71397  0.74442  0.14549  Biso   1.000  C
  C411     1.0000 0.99998  0.00006  0.06820  Biso   1.000  C
  C412     1.0000 0.01305  0.07932  0.10720  Biso   1.000  C
  C413     1.0000 0.92070  0.93372  0.10720  Biso   1.000  C
  H304     1.0000 0.99998  0.00006  0.13784  Biso   1.000  H
  O25      1.0000 0.08506  0.43516  0.11981  Biso   1.000  O
  N27      1.0000 0.04545  0.28443  0.12052  Biso   1.000  N
  N28      1.0000 0.04548  0.28449  0.12052  Biso   1.000  N
  H305     1.0000 0.00893  0.23795  0.15484  Biso   1.000  H
  O26      1.0000 0.56492  0.64989  0.11981  Biso   1.000  O
  O27      1.0000 0.56485  0.64995  0.11981  Biso   1.000  O
  H306     1.0000 0.76209  0.77104  0.15484  Biso   1.000  H
  N29      1.0000 0.71558  0.76102  0.12052  Biso   1.000  N
  C414     1.0000 0.01346  0.07835  0.07937  Biso   1.000  C
  C415     1.0000 0.01351  0.07835  0.07937  Biso   1.000  C
  C416     1.0000 0.92171  0.93511  0.07937  Biso   1.000  C
  C417     1.0000 0.92169  0.93517  0.07937  Biso   1.000  C
  H307     1.0000 0.99998  0.00006  0.04894  Biso   1.000  H
  C418     1.0000 0.02348  0.14566  0.12097  Biso   1.000  C
  C419     1.0000 0.85441  0.87788  0.12097  Biso   1.000  C
  H308     1.0000 0.04393  0.39943  0.11213  Biso   1.000  H
  C420     1.0000 0.03529  0.21465  0.10779  Biso   1.000  C
  C421     1.0000 0.03524  0.21465  0.10779  Biso   1.000  C
  H309     1.0000 0.60061  0.64452  0.11213  Biso   1.000  H
  C422     1.0000 0.78544  0.82066  0.10779  Biso   1.000  C
  C423     1.0000 0.78539  0.82066  0.10779  Biso   1.000  C
  C424     1.0000 0.02504  0.14753  0.06639  Biso   1.000  C
  C425     1.0000 0.85245  0.87752  0.06639  Biso   1.000  C
  H310     1.0000 0.02268  0.14457  0.13923  Biso   1.000  H
  H311     1.0000 0.85547  0.87813  0.13923  Biso   1.000  H
  C426     1.0000 0.03693  0.21502  0.08038  Biso   1.000  C
  C427     1.0000 0.78503  0.82193  0.08038  Biso   1.000  C
  C428     1.0000 0.78498  0.82193  0.08038  Biso   1.000  C
  H312     1.0000 0.02488  0.14856  0.04813  Biso   1.000  H
  H313     1.0000 0.85153  0.87631  0.04813  Biso   1.000  H
  H314     1.0000 0.85146  0.87637  0.04813  Biso   1.000  H
  H315     1.0000 0.04625  0.26125  0.07134  Biso   1.000  H
  H316     1.0000 0.73878  0.78504  0.07134  Biso   1.000  H
  H317     1.0000 0.73872  0.78504  0.07134  Biso   1.000  H
  C429     1.0000 0.64160  0.18580  0.26693  Biso   1.000  C
  C430     1.0000 0.65318  0.25498  0.25395  Biso   1.000  C
  H318     1.0000 0.64176  0.18477  0.28520  Biso   1.000  H
  C431     1.0000 0.62970  0.11831  0.25295  Biso   1.000  C
  C432     1.0000 0.66669  0.33333  0.26515  Biso   1.000  C
  C433     1.0000 0.65359  0.25401  0.22615  Biso   1.000  C
  C434     1.0000 0.63140  0.11868  0.22556  Biso   1.000  C
  H319     1.0000 0.62039  0.07207  0.26200  Biso   1.000  H
  C435     1.0000 0.60180  0.34679  0.25395  Biso   1.000  C
  H320     1.0000 0.66669  0.33333  0.28441  Biso   1.000  H
  C436     1.0000 0.74504  0.39822  0.25395  Biso   1.000  C
  C437     1.0000 0.66669  0.33333  0.21479  Biso   1.000  C
  C438     1.0000 0.64316  0.18767  0.21238  Biso   1.000  C
  N30      1.0000 0.62119  0.04889  0.21281  Biso   1.000  N
  C439     1.0000 0.54419  0.35838  0.26693  Biso   1.000  C
  C440     1.0000 0.60042  0.34643  0.22615  Biso   1.000  C
  C441     1.0000 0.74599  0.39961  0.22615  Biso   1.000  C
  C442     1.0000 0.81419  0.45581  0.26693  Biso   1.000  C
  H321     1.0000 0.66669  0.33333  0.19549  Biso   1.000  H
  H322     1.0000 0.64399  0.18882  0.19410  Biso   1.000  H
  C443     1.0000 0.63616  0.04726  0.18783  Biso   1.000  C
  C444     1.0000 0.48860  0.37027  0.25295  Biso   1.000  C
  H323     1.0000 0.54300  0.35820  0.28520  Biso   1.000  H
  C445     1.0000 0.54450  0.35681  0.21238  Biso   1.000  C
  C446     1.0000 0.81231  0.45551  0.21238  Biso   1.000  C
  H324     1.0000 0.81521  0.45701  0.28520  Biso   1.000  H
  C447     1.0000 0.88171  0.51140  0.25295  Biso   1.000  C
  H325     1.0000 0.65770  0.09537  0.17850  Biso   1.000  H
  C448     1.0000 0.62174  0.97724  0.17432  Biso   1.000  C
  C449     1.0000 0.48729  0.36858  0.22556  Biso   1.000  C
  H326     1.0000 0.45172  0.37963  0.26200  Biso   1.000  H
  H327     1.0000 0.54484  0.35603  0.19410  Biso   1.000  H
  C450     1.0000 0.88130  0.51267  0.22556  Biso   1.000  C
  H328     1.0000 0.81122  0.45520  0.19410  Biso   1.000  H
  H329     1.0000 0.92791  0.54829  0.26200  Biso   1.000  H
  C451     1.0000 0.59487  0.90384  0.18724  Biso   1.000  C
  C452     1.0000 0.63573  0.97917  0.14691  Biso   1.000  C
  N31      1.0000 0.42767  0.37878  0.21281  Biso   1.000  N
  N32      1.0000 0.95111  0.57231  0.21281  Biso   1.000  N
  O28      1.0000 0.58166  0.89823  0.21352  Biso   1.000  O
  C453     1.0000 0.58106  0.83702  0.17316  Biso   1.000  C
  H330     1.0000 0.65550  0.02813  0.13821  Biso   1.000  H
  C454     1.0000 0.62160  0.91308  0.13275  Biso   1.000  C
  C455     1.0000 0.41109  0.36381  0.18783  Biso   1.000  C
  C456     1.0000 0.95272  0.58891  0.18783  Biso   1.000  C
  H331     1.0000 0.62271  0.93390  0.22120  Biso   1.000  H
  H332     1.0000 0.56355  0.78830  0.18190  Biso   1.000  H
  C457     1.0000 0.59242  0.84028  0.14630  Biso   1.000  C
  C458     1.0000 0.63570  0.91712  0.10349  Biso   1.000  C
  C459     1.0000 0.35555  0.37830  0.17432  Biso   1.000  C
  H333     1.0000 0.43772  0.34232  0.17850  Biso   1.000  H
  H334     1.0000 0.90460  0.56229  0.17850  Biso   1.000  H
  C460     1.0000 0.02276  0.64451  0.17432  Biso   1.000  C
  H335     1.0000 0.58047  0.79350  0.13711  Biso   1.000  H
  H336     1.0000 0.66840  0.97332  0.09831  Biso   1.000  H
  H337     1.0000 0.66594  0.89020  0.09940  Biso   1.000  H
  C461     1.0000 0.55978  0.87945  0.08780  Biso   1.000  C
  C462     1.0000 0.30905  0.40522  0.18724  Biso   1.000  C
  C463     1.0000 0.34347  0.36430  0.14691  Biso   1.000  C
  C464     1.0000 0.09619  0.69099  0.18724  Biso   1.000  C
  C465     1.0000 0.02082  0.65652  0.14691  Biso   1.000  C
  C466     1.0000 0.57369  0.88857  0.05870  Biso   1.000  C
  H338     1.0000 0.52784  0.90372  0.09281  Biso   1.000  H
  H339     1.0000 0.52904  0.82247  0.09200  Biso   1.000  H
  O29      1.0000 0.31657  0.41838  0.21352  Biso   1.000  O
  C467     1.0000 0.25597  0.41899  0.17316  Biso   1.000  C
  C468     1.0000 0.29152  0.37842  0.13275  Biso   1.000  C
  H340     1.0000 0.37257  0.34450  0.13821  Biso   1.000  H
  O30      1.0000 0.10182  0.68344  0.21352  Biso   1.000  O
  C469     1.0000 0.16299  0.74398  0.17316  Biso   1.000  C
  H341     1.0000 0.97193  0.62742  0.13821  Biso   1.000  H
  C470     1.0000 0.08690  0.70849  0.13275  Biso   1.000  C
  C471     1.0000 0.59126  0.83629  0.04473  Biso   1.000  C
  C472     1.0000 0.57769  0.95249  0.04521  Biso   1.000  C
  H342     1.0000 0.31117  0.37727  0.22120  Biso   1.000  H
  H343     1.0000 0.22478  0.43649  0.18190  Biso   1.000  H
  C473     1.0000 0.24789  0.40764  0.14630  Biso   1.000  C
  C474     1.0000 0.28147  0.36430  0.10349  Biso   1.000  C
  H344     1.0000 0.06609  0.68881  0.22120  Biso   1.000  H
  H345     1.0000 0.21169  0.77519  0.18190  Biso   1.000  H
  C475     1.0000 0.15975  0.75213  0.14630  Biso   1.000  C
  C476     1.0000 0.08287  0.71851  0.10349  Biso   1.000  C
  C477     1.0000 0.60934  0.84788  0.01834  Biso   1.000  C
  H346     1.0000 0.59067  0.79319  0.05339  Biso   1.000  H
  C478     1.0000 0.59578  0.96420  0.01826  Biso   1.000  C
  H347     1.0000 0.56807  0.98919  0.05420  Biso   1.000  H
  H348     1.0000 0.21301  0.41953  0.13711  Biso   1.000  H
  H349     1.0000 0.30490  0.33158  0.09831  Biso   1.000  H
  H350     1.0000 0.22430  0.33411  0.09940  Biso   1.000  H
  C479     1.0000 0.31967  0.44017  0.08780  Biso   1.000  C
  H351     1.0000 0.20652  0.78702  0.13711  Biso   1.000  H
  H352     1.0000 0.02667  0.69509  0.09831  Biso   1.000  H
  H353     1.0000 0.10978  0.77568  0.09940  Biso   1.000  H
  C480     1.0000 0.12057  0.68036  0.08780  Biso   1.000  C
  C481     1.0000 0.61274  0.91030  0.00515  Biso   1.000  C
  H354     1.0000 0.61939  0.81142  0.00941  Biso   1.000  H
  C482     1.0000 0.60030  0.03296  0.00524  Biso   1.000  C
  C483     1.0000 0.31491  0.42635  0.05870  Biso   1.000  C
  H355     1.0000 0.37590  0.47223  0.09281  Biso   1.000  H
  H356     1.0000 0.29348  0.47102  0.09200  Biso   1.000  H
  C484     1.0000 0.11147  0.68507  0.05870  Biso   1.000  C
  H357     1.0000 0.09631  0.62410  0.09281  Biso   1.000  H
  H358     1.0000 0.17750  0.70650  0.09200  Biso   1.000  H
  O31      1.0000 0.63199  0.92068  0.97883  Biso   1.000  O
  N33      1.0000 0.61876  0.04853  0.98077  Biso   1.000  N
  H359     1.0000 0.58941  0.06773  0.01490  Biso   1.000  H
  C485     1.0000 0.24512  0.40878  0.04473  Biso   1.000  C
  C486     1.0000 0.37478  0.42231  0.04521  Biso   1.000  C
  C487     1.0000 0.16370  0.75491  0.04473  Biso   1.000  C
  C488     1.0000 0.04750  0.62519  0.04521  Biso   1.000  C
  H360     1.0000 0.63589  0.96402  0.97361  Biso   1.000  H
  C489     1.0000 0.62749  0.11807  0.96842  Biso   1.000  C
  C490     1.0000 0.23857  0.39067  0.01834  Biso   1.000  C
  H361     1.0000 0.20260  0.40939  0.05339  Biso   1.000  H
  C491     1.0000 0.36844  0.40420  0.01826  Biso   1.000  C
  H362     1.0000 0.42109  0.43190  0.05420  Biso   1.000  H
  C492     1.0000 0.15211  0.76143  0.01834  Biso   1.000  C
  H363     1.0000 0.20680  0.79741  0.05339  Biso   1.000  H
  C493     1.0000 0.03580  0.63159  0.01826  Biso   1.000  C
  H364     1.0000 0.01081  0.57889  0.05420  Biso   1.000  H
  C494     1.0000 0.63943  0.18671  0.98252  Biso   1.000  C
  C495     1.0000 0.62804  0.11958  0.94113  Biso   1.000  C
  C496     1.0000 0.29757  0.38729  0.00515  Biso   1.000  C
  H365     1.0000 0.19202  0.38059  0.00941  Biso   1.000  H
  C497     1.0000 0.43265  0.39973  0.00524  Biso   1.000  C
  C498     1.0000 0.08971  0.70239  0.00515  Biso   1.000  C
  H366     1.0000 0.18861  0.80797  0.00941  Biso   1.000  H
  C499     1.0000 0.96704  0.56736  0.00524  Biso   1.000  C
  C500     1.0000 0.65083  0.25425  0.96874  Biso   1.000  C
  H367     1.0000 0.63970  0.18671  0.00081  Biso   1.000  H
  C501     1.0000 0.63944  0.18713  0.92754  Biso   1.000  C
  H368     1.0000 0.62070  0.07449  0.93190  Biso   1.000  H
  O32      1.0000 0.28865  0.36798  0.97883  Biso   1.000  O
  H369     1.0000 0.47829  0.41060  0.01490  Biso   1.000  H
  N34      1.0000 0.42979  0.38126  0.98077  Biso   1.000  N
  O33      1.0000 0.07933  0.71133  0.97883  Biso   1.000  O
  N35      1.0000 0.95147  0.57020  0.98077  Biso   1.000  N
  H370     1.0000 0.93230  0.52172  0.01490  Biso   1.000  H
  C502     1.0000 0.66669  0.33333  0.98013  Biso   1.000  C
  C503     1.0000 0.65086  0.25389  0.94107  Biso   1.000  C
  H371     1.0000 0.63933  0.18713  0.90929  Biso   1.000  H
  H372     1.0000 0.32820  0.36418  0.97361  Biso   1.000  H
  C504     1.0000 0.49056  0.37251  0.96842  Biso   1.000  C
  H373     1.0000 0.03598  0.67179  0.97361  Biso   1.000  H
  C505     1.0000 0.88192  0.50941  0.96842  Biso   1.000  C
  C506     1.0000 0.60340  0.34914  0.96874  Biso   1.000  C
  H374     1.0000 0.66669  0.33333  0.99939  Biso   1.000  H
  C507     1.0000 0.74574  0.39659  0.96874  Biso   1.000  C
  C508     1.0000 0.66669  0.33333  0.92934  Biso   1.000  C
  C509     1.0000 0.54726  0.36055  0.98252  Biso   1.000  C
  C510     1.0000 0.49154  0.37196  0.94113  Biso   1.000  C
  C511     1.0000 0.81327  0.45273  0.98252  Biso   1.000  C
  C512     1.0000 0.88039  0.50844  0.94113  Biso   1.000  C
  C513     1.0000 0.60303  0.34914  0.94107  Biso   1.000  C
  C514     1.0000 0.74613  0.39695  0.94107  Biso   1.000  C
  H375     1.0000 0.66669  0.33333  0.91010  Biso   1.000  H
  H376     1.0000 0.54698  0.36031  0.00081  Biso   1.000  H
  H377     1.0000 0.45382  0.37933  0.93190  Biso   1.000  H
  C515     1.0000 0.54768  0.36055  0.92754  Biso   1.000  C
  H378     1.0000 0.81329  0.45297  0.00081  Biso   1.000  H
  C516     1.0000 0.81285  0.45231  0.92754  Biso   1.000  C
  H379     1.0000 0.92550  0.54617  0.93190  Biso   1.000  H
  H380     1.0000 0.54779  0.36067  0.90929  Biso   1.000  H
  H381     1.0000 0.81290  0.45219  0.90929  Biso   1.000  H
  C517     1.0000 0.51142  0.62972  0.74705  Biso   1.000  C
  C518     1.0000 0.45578  0.64161  0.73307  Biso   1.000  C
  H382     1.0000 0.54833  0.62042  0.73800  Biso   1.000  H
  C519     1.0000 0.51273  0.63141  0.77444  Biso   1.000  C
  C520     1.0000 0.39822  0.65320  0.74605  Biso   1.000  C
  H383     1.0000 0.45697  0.64179  0.71480  Biso   1.000  H
  C521     1.0000 0.45547  0.64318  0.78762  Biso   1.000  C
  N36      1.0000 0.57230  0.62120  0.78719  Biso   1.000  N
  C522     1.0000 0.33331  0.66672  0.73485  Biso   1.000  C
  C523     1.0000 0.39963  0.65362  0.77385  Biso   1.000  C
  H384     1.0000 0.45521  0.64402  0.80590  Biso   1.000  H
  C524     1.0000 0.58888  0.63617  0.81217  Biso   1.000  C
  C525     1.0000 0.25502  0.60183  0.74605  Biso   1.000  C
  H385     1.0000 0.33331  0.66672  0.71559  Biso   1.000  H
  C526     1.0000 0.34679  0.74501  0.74605  Biso   1.000  C
  C527     1.0000 0.33331  0.66672  0.78521  Biso   1.000  C
  H386     1.0000 0.56233  0.65772  0.82150  Biso   1.000  H
  C528     1.0000 0.64450  0.62175  0.82568  Biso   1.000  C
  C529     1.0000 0.18578  0.54418  0.73307  Biso   1.000  C
  C530     1.0000 0.25398  0.60038  0.77385  Biso   1.000  C
  C531     1.0000 0.35837  0.81419  0.73307  Biso   1.000  C
  C532     1.0000 0.34638  0.74598  0.77385  Biso   1.000  C
  H387     1.0000 0.33331  0.66672  0.80451  Biso   1.000  H
  C533     1.0000 0.69097  0.59477  0.81276  Biso   1.000  C
  C534     1.0000 0.65655  0.63569  0.85309  Biso   1.000  C
  H388     1.0000 0.18481  0.54297  0.71480  Biso   1.000  H
  C535     1.0000 0.11831  0.48859  0.74705  Biso   1.000  C
  C536     1.0000 0.18766  0.54448  0.78762  Biso   1.000  C
  H389     1.0000 0.35821  0.81521  0.71480  Biso   1.000  H
  C537     1.0000 0.37026  0.88167  0.74705  Biso   1.000  C
  C538     1.0000 0.35681  0.81232  0.78762  Biso   1.000  C
  O34      1.0000 0.68340  0.58161  0.78648  Biso   1.000  O
  C539     1.0000 0.74400  0.58100  0.82684  Biso   1.000  C
  C540     1.0000 0.70850  0.62157  0.86725  Biso   1.000  C
  H390     1.0000 0.62740  0.65549  0.86179  Biso   1.000  H
  H391     1.0000 0.07211  0.45170  0.73800  Biso   1.000  H
  C541     1.0000 0.11872  0.48732  0.77444  Biso   1.000  C
  H392     1.0000 0.18880  0.54478  0.80590  Biso   1.000  H
  H393     1.0000 0.37958  0.92791  0.73800  Biso   1.000  H
  C542     1.0000 0.36862  0.88131  0.77444  Biso   1.000  C
  H394     1.0000 0.35600  0.81123  0.80590  Biso   1.000  H
  H395     1.0000 0.68879  0.62271  0.77880  Biso   1.000  H
  H396     1.0000 0.77519  0.56350  0.81810  Biso   1.000  H
  C543     1.0000 0.75208  0.59235  0.85370  Biso   1.000  C
  C544     1.0000 0.71855  0.63569  0.89651  Biso   1.000  C
  N37      1.0000 0.04885  0.42768  0.78719  Biso   1.000  N
  N38      1.0000 0.37878  0.95109  0.78719  Biso   1.000  N
  H397     1.0000 0.78699  0.58052  0.86289  Biso   1.000  H
  H398     1.0000 0.69512  0.66841  0.90169  Biso   1.000  H
  H399     1.0000 0.77567  0.66587  0.90060  Biso   1.000  H
  C545     1.0000 0.68035  0.55981  0.91220  Biso   1.000  C
  C546     1.0000 0.04730  0.41108  0.81217  Biso   1.000  C
  C547     1.0000 0.36381  0.95272  0.81217  Biso   1.000  C
  C548     1.0000 0.68506  0.57364  0.94130  Biso   1.000  C
  H400     1.0000 0.62410  0.52782  0.90719  Biso   1.000  H
  H401     1.0000 0.70651  0.52903  0.90800  Biso   1.000  H
  H402     1.0000 0.09542  0.43770  0.82150  Biso   1.000  H
  C549     1.0000 0.97724  0.35554  0.82568  Biso   1.000  C
  H403     1.0000 0.34232  0.90461  0.82150  Biso   1.000  H
  C550     1.0000 0.37828  0.02275  0.82568  Biso   1.000  C
  C551     1.0000 0.75490  0.59120  0.95527  Biso   1.000  C
  C552     1.0000 0.62519  0.57768  0.95479  Biso   1.000  C
  C553     1.0000 0.90386  0.30906  0.81276  Biso   1.000  C
  C554     1.0000 0.97915  0.34347  0.85309  Biso   1.000  C
  C555     1.0000 0.40520  0.09615  0.81276  Biso   1.000  C
  C556     1.0000 0.36427  0.02087  0.85309  Biso   1.000  C
  C557     1.0000 0.76140  0.60931  0.98166  Biso   1.000  C
  H404     1.0000 0.79742  0.59060  0.94661  Biso   1.000  H
  C558     1.0000 0.63158  0.59579  0.98174  Biso   1.000  C
  H405     1.0000 0.57888  0.56808  0.94580  Biso   1.000  H
  O35      1.0000 0.89823  0.31661  0.78648  Biso   1.000  O
  C559     1.0000 0.83698  0.25600  0.82684  Biso   1.000  C
  H406     1.0000 0.02812  0.37263  0.86179  Biso   1.000  H
  C560     1.0000 0.91307  0.29150  0.86725  Biso   1.000  C
  O36      1.0000 0.41839  0.10182  0.78648  Biso   1.000  O
  C561     1.0000 0.41901  0.16297  0.82684  Biso   1.000  C
  H407     1.0000 0.34450  0.97192  0.86179  Biso   1.000  H
  C562     1.0000 0.37837  0.08691  0.86725  Biso   1.000  C
  C563     1.0000 0.70239  0.61269  0.99485  Biso   1.000  C
  H408     1.0000 0.80800  0.61939  0.99059  Biso   1.000  H
  C564     1.0000 0.56735  0.60032  0.99476  Biso   1.000  C
  H409     1.0000 0.93388  0.31118  0.77880  Biso   1.000  H
  H410     1.0000 0.78828  0.22480  0.81810  Biso   1.000  H
  C565     1.0000 0.84030  0.24791  0.85370  Biso   1.000  C
  C566     1.0000 0.91715  0.28148  0.89651  Biso   1.000  C
  H411     1.0000 0.37731  0.06609  0.77880  Biso   1.000  H
  H412     1.0000 0.43647  0.21168  0.81810  Biso   1.000  H
  C567     1.0000 0.40755  0.15971  0.85370  Biso   1.000  C
  C568     1.0000 0.36427  0.08287  0.89651  Biso   1.000  C
  O37      1.0000 0.71132  0.63201  0.02117  Biso   1.000  O
  H413     1.0000 0.52168  0.58939  0.98510  Biso   1.000  H
  N39      1.0000 0.57023  0.61873  0.01923  Biso   1.000  N
  H414     1.0000 0.79353  0.21302  0.86289  Biso   1.000  H
  H415     1.0000 0.97330  0.30490  0.90169  Biso   1.000  H
  H416     1.0000 0.89019  0.22431  0.90060  Biso   1.000  H
  C569     1.0000 0.87948  0.31969  0.91220  Biso   1.000  C
  H417     1.0000 0.41949  0.20649  0.86289  Biso   1.000  H
  H418     1.0000 0.33155  0.02673  0.90169  Biso   1.000  H
  H419     1.0000 0.33408  0.10979  0.90060  Biso   1.000  H
  C570     1.0000 0.44019  0.12053  0.91220  Biso   1.000  C
  H420     1.0000 0.67182  0.63581  0.02639  Biso   1.000  H
  C571     1.0000 0.50941  0.62748  0.03158  Biso   1.000  C
  C572     1.0000 0.88855  0.31492  0.94130  Biso   1.000  C
  H421     1.0000 0.90371  0.37589  0.90719  Biso   1.000  H
  H422     1.0000 0.82247  0.29349  0.90800  Biso   1.000  H
  C573     1.0000 0.42641  0.11148  0.94130  Biso   1.000  C
  H423     1.0000 0.47215  0.09633  0.90719  Biso   1.000  H
  H424     1.0000 0.47103  0.17752  0.90800  Biso   1.000  H
  C574     1.0000 0.45276  0.63943  0.01748  Biso   1.000  C
  C575     1.0000 0.50846  0.62809  0.05887  Biso   1.000  C
  C576     1.0000 0.83627  0.24508  0.95527  Biso   1.000  C
  C577     1.0000 0.95247  0.37480  0.95479  Biso   1.000  C
  C578     1.0000 0.40876  0.16369  0.95527  Biso   1.000  C
  C579     1.0000 0.42233  0.04749  0.95479  Biso   1.000  C
  C580     1.0000 0.39657  0.65084  0.03126  Biso   1.000  C
  H425     1.0000 0.45299  0.63968  0.99919  Biso   1.000  H
  H426     1.0000 0.54623  0.62072  0.06810  Biso   1.000  H
  C581     1.0000 0.45234  0.63943  0.07246  Biso   1.000  C
  C582     1.0000 0.84789  0.23862  0.98166  Biso   1.000  C
  H427     1.0000 0.79317  0.20258  0.94661  Biso   1.000  H
  C583     1.0000 0.96422  0.36840  0.98174  Biso   1.000  C
  H428     1.0000 0.98921  0.42110  0.94580  Biso   1.000  H
  C584     1.0000 0.39068  0.15210  0.98166  Biso   1.000  C
  H429     1.0000 0.40935  0.20679  0.94661  Biso   1.000  H
  C585     1.0000 0.40419  0.03578  0.98174  Biso   1.000  C
  H430     1.0000 0.43184  0.01079  0.94580  Biso   1.000  H
  C586     1.0000 0.33331  0.66672  0.01987  Biso   1.000  C
  C587     1.0000 0.39694  0.65084  0.05893  Biso   1.000  C
  H431     1.0000 0.45223  0.63931  0.09071  Biso   1.000  H
  C588     1.0000 0.91031  0.29759  0.99485  Biso   1.000  C
  H432     1.0000 0.81141  0.19202  0.99059  Biso   1.000  H
  C589     1.0000 0.03296  0.43269  0.99476  Biso   1.000  C
  C590     1.0000 0.38728  0.08969  0.99485  Biso   1.000  C
  H433     1.0000 0.38061  0.18863  0.99059  Biso   1.000  H
  C591     1.0000 0.39972  0.96703  0.99476  Biso   1.000  C
  C592     1.0000 0.25428  0.60340  0.03126  Biso   1.000  C
  H434     1.0000 0.33331  0.66672  0.00061  Biso   1.000  H
  C593     1.0000 0.34913  0.74574  0.03126  Biso   1.000  C
  C594     1.0000 0.33331  0.66672  0.07066  Biso   1.000  C
  O38      1.0000 0.92064  0.28866  0.02117  Biso   1.000  O
  H435     1.0000 0.06769  0.47832  0.98510  Biso   1.000  H
  N40      1.0000 0.04850  0.42979  0.01923  Biso   1.000  N
  O39      1.0000 0.36801  0.07937  0.02117  Biso   1.000  O
  H436     1.0000 0.41059  0.93232  0.98510  Biso   1.000  H
  N41      1.0000 0.38129  0.95152  0.01923  Biso   1.000  N
  C595     1.0000 0.18669  0.54726  0.01748  Biso   1.000  C
  C596     1.0000 0.25389  0.60304  0.05893  Biso   1.000  C
  C597     1.0000 0.36053  0.81328  0.01748  Biso   1.000  C
  C598     1.0000 0.34916  0.74610  0.05893  Biso   1.000  C
  H437     1.0000 0.33331  0.66672  0.08990  Biso   1.000  H
  H438     1.0000 0.96398  0.32820  0.02639  Biso   1.000  H
  C599     1.0000 0.11805  0.49058  0.03158  Biso   1.000  C
  H439     1.0000 0.36421  0.03603  0.02639  Biso   1.000  H
  C600     1.0000 0.37253  0.88192  0.03158  Biso   1.000  C
  H440     1.0000 0.18673  0.54702  0.99919  Biso   1.000  H
  C601     1.0000 0.18711  0.54768  0.07246  Biso   1.000  C
  H441     1.0000 0.36027  0.81328  0.99919  Biso   1.000  H
  C602     1.0000 0.36053  0.81286  0.07246  Biso   1.000  C
  C603     1.0000 0.11958  0.49154  0.05887  Biso   1.000  C
  C604     1.0000 0.37193  0.88041  0.05887  Biso   1.000  C
  H442     1.0000 0.18712  0.54780  0.09071  Biso   1.000  H
  H443     1.0000 0.36072  0.81292  0.09071  Biso   1.000  H
  H444     1.0000 0.07452  0.45382  0.06810  Biso   1.000  H
  H445     1.0000 0.37932  0.92550  0.06810  Biso   1.000  H
