data_image0
_cell_length_a       34.979
_cell_length_b       34.979
_cell_length_c       24.446
_cell_angle_alpha    90
_cell_angle_beta     90
_cell_angle_gamma    120

_symmetry_space_group_name_H-M    "P 1"
_symmetry_int_tables_number       1

loop_
  _symmetry_equiv_pos_as_xyz
  'x, y, z'

loop_
  _atom_site_label
  _atom_site_occupancy
  _atom_site_fract_x
  _atom_site_fract_y
  _atom_site_fract_z
  _atom_site_thermal_displace_type
  _atom_site_B_iso_or_equiv
  _atom_site_type_symbol
  C1       1.0000 0.43465  0.45163  0.53763  Biso   1.000  C
  C2       1.0000 0.40476  0.46104  0.50151  Biso   1.000  C
  H1       1.0000 0.42318  0.42033  0.53964  Biso   1.000  H
  H2       1.0000 0.43579  0.46305  0.57371  Biso   1.000  H
  H3       1.0000 0.46386  0.46572  0.52233  Biso   1.000  H
  C3       1.0000 0.42267  0.51085  0.49791  Biso   1.000  C
  H4       1.0000 0.40468  0.44994  0.46462  Biso   1.000  H
  C4       1.0000 0.35748  0.43713  0.52332  Biso   1.000  C
  C5       1.0000 0.39636  0.52491  0.46163  Biso   1.000  C
  H5       1.0000 0.42366  0.52204  0.53465  Biso   1.000  H
  H6       1.0000 0.45277  0.52485  0.48441  Biso   1.000  H
  H7       1.0000 0.34696  0.40604  0.52512  Biso   1.000  H
  H8       1.0000 0.33887  0.44235  0.49935  Biso   1.000  H
  H9       1.0000 0.35687  0.44793  0.55923  Biso   1.000  H
  C6       1.0000 0.39131  0.50818  0.40342  Biso   1.000  C
  C7       1.0000 0.41265  0.57407  0.46302  Biso   1.000  C
  H10      1.0000 0.36649  0.51055  0.47693  Biso   1.000  H
  C8       1.0000 0.35166  0.49124  0.37634  Biso   1.000  C
  C9       1.0000 0.42637  0.50963  0.37462  Biso   1.000  C
  C10      1.0000 0.38333  0.58942  0.46482  Biso   1.000  C
  C11      1.0000 0.45705  0.60562  0.46261  Biso   1.000  C
  C12      1.0000 0.34672  0.47559  0.32324  Biso   1.000  C
  O1       1.0000 0.31407  0.48834  0.40092  Biso   1.000  O
  C13      1.0000 0.42264  0.49398  0.32124  Biso   1.000  C
  H11      1.0000 0.45376  0.52174  0.39184  Biso   1.000  H
  O2       1.0000 0.33767  0.56037  0.46564  Biso   1.000  O
  C14      1.0000 0.39797  0.63425  0.46621  Biso   1.000  C
  C15      1.0000 0.47367  0.65111  0.46384  Biso   1.000  C
  H12      1.0000 0.47725  0.59572  0.46143  Biso   1.000  H
  C16      1.0000 0.38248  0.47794  0.29624  Biso   1.000  C
  O3       1.0000 0.30611  0.45836  0.29592  Biso   1.000  O
  H13      1.0000 0.32136  0.51012  0.42015  Biso   1.000  H
  C17      1.0000 0.46171  0.49540  0.29211  Biso   1.000  C
  H14      1.0000 0.33167  0.53904  0.44604  Biso   1.000  H
  O4       1.0000 0.36688  0.64834  0.46785  Biso   1.000  O
  C18      1.0000 0.44237  0.66438  0.46523  Biso   1.000  C
  C19      1.0000 0.52227  0.68393  0.46155  Biso   1.000  C
  O5       1.0000 0.37512  0.46127  0.24274  Biso   1.000  O
  H15      1.0000 0.28797  0.45935  0.31625  Biso   1.000  H
  C20      1.0000 0.48981  0.53868  0.26274  Biso   1.000  C
  H16      1.0000 0.44897  0.47282  0.26344  Biso   1.000  H
  C21      1.0000 0.48958  0.48262  0.32733  Biso   1.000  C
  H17      1.0000 0.37958  0.67534  0.46842  Biso   1.000  H
  O6       1.0000 0.45534  0.70941  0.46552  Biso   1.000  O
  C22      1.0000 0.53938  0.69584  0.40293  Biso   1.000  C
  H18      1.0000 0.52575  0.71113  0.47775  Biso   1.000  H
  C23      1.0000 0.55047  0.67125  0.49632  Biso   1.000  C
  H19      1.0000 0.39707  0.47635  0.22404  Biso   1.000  H
  C24      1.0000 0.48096  0.54442  0.20895  Biso   1.000  C
  C25      1.0000 0.52423  0.57492  0.28815  Biso   1.000  C
  H20      1.0000 0.49828  0.50055  0.36022  Biso   1.000  H
  H21      1.0000 0.51616  0.48942  0.30741  Biso   1.000  H
  C26      1.0000 0.46607  0.43413  0.34353  Biso   1.000  C
  H22      1.0000 0.47689  0.72295  0.44564  Biso   1.000  H
  C27      1.0000 0.55427  0.67194  0.37405  Biso   1.000  C
  C28      1.0000 0.53996  0.73090  0.37573  Biso   1.000  C
  H23      1.0000 0.53697  0.66283  0.53211  Biso   1.000  H
  H24      1.0000 0.54906  0.64534  0.48004  Biso   1.000  H
  C29      1.0000 0.59707  0.70413  0.50413  Biso   1.000  C
  O7       1.0000 0.44661  0.50996  0.17933  Biso   1.000  O
  C30      1.0000 0.50597  0.58374  0.18212  Biso   1.000  C
  H25      1.0000 0.53029  0.57205  0.32443  Biso   1.000  H
  C31      1.0000 0.55052  0.61566  0.26242  Biso   1.000  C
  H26      1.0000 0.43657  0.42304  0.35912  Biso   1.000  H
  C32      1.0000 0.49947  0.43215  0.38223  Biso   1.000  C
  C33      1.0000 0.46738  0.40954  0.29211  Biso   1.000  C
  C34      1.0000 0.57053  0.68135  0.32083  Biso   1.000  C
  H27      1.0000 0.55348  0.64794  0.39143  Biso   1.000  H
  C35      1.0000 0.55526  0.74133  0.32283  Biso   1.000  C
  O8       1.0000 0.52552  0.75721  0.40084  Biso   1.000  O
  H28      1.0000 0.61106  0.71512  0.46842  Biso   1.000  H
  C36      1.0000 0.62128  0.68594  0.53465  Biso   1.000  C
  C37      1.0000 0.60096  0.74232  0.53862  Biso   1.000  C
  H29      1.0000 0.42548  0.49583  0.19962  Biso   1.000  H
  O9       1.0000 0.49658  0.58744  0.12763  Biso   1.000  O
  C38      1.0000 0.54017  0.61863  0.20862  Biso   1.000  C
  C39      1.0000 0.58767  0.65458  0.29175  Biso   1.000  C
  H30      1.0000 0.50056  0.44684  0.41594  Biso   1.000  H
  H31      1.0000 0.52816  0.44664  0.36554  Biso   1.000  H
  H32      1.0000 0.49066  0.40194  0.38963  Biso   1.000  H
  H33      1.0000 0.45056  0.41294  0.26352  Biso   1.000  H
  H34      1.0000 0.45507  0.37874  0.30042  Biso   1.000  H
  H35      1.0000 0.49748  0.42152  0.28041  Biso   1.000  H
  C40      1.0000 0.57077  0.71724  0.29604  Biso   1.000  C
  O10      1.0000 0.55597  0.77682  0.29543  Biso   1.000  O
  H36      1.0000 0.50405  0.74183  0.42003  Biso   1.000  H
  H37      1.0000 0.62177  0.66313  0.51334  Biso   1.000  H
  H38      1.0000 0.60667  0.67383  0.56885  Biso   1.000  H
  H39      1.0000 0.65098  0.70915  0.54144  Biso   1.000  H
  H40      1.0000 0.58477  0.75454  0.52143  Biso   1.000  H
  H41      1.0000 0.63147  0.76464  0.54164  Biso   1.000  H
  H42      1.0000 0.58917  0.73173  0.57445  Biso   1.000  H
  H43      1.0000 0.51385  0.61242  0.11642  Biso   1.000  H
  O11      1.0000 0.56382  0.65775  0.17872  Biso   1.000  O
  H44      1.0000 0.60756  0.67383  0.26315  Biso   1.000  H
  C41      1.0000 0.61575  0.64293  0.32893  Biso   1.000  C
  O12      1.0000 0.58623  0.72945  0.24274  Biso   1.000  O
  H45      1.0000 0.54627  0.78864  0.31572  Biso   1.000  H
  H46      1.0000 0.57027  0.67894  0.19872  Biso   1.000  H
  H47      1.0000 0.59858  0.62744  0.36092  Biso   1.000  H
  H48      1.0000 0.62275  0.62302  0.30942  Biso   1.000  H
  C42      1.0000 0.65886  0.68363  0.34742  Biso   1.000  C
  H49      1.0000 0.57907  0.70723  0.22433  Biso   1.000  H
  H50      1.0000 0.65229  0.70644  0.35932  Biso   1.000  H
  C43      1.0000 0.67859  0.67145  0.39565  Biso   1.000  C
  C44      1.0000 0.69095  0.70132  0.29964  Biso   1.000  C
  H51      1.0000 0.70537  0.69723  0.40722  Biso   1.000  H
  H52      1.0000 0.68497  0.64894  0.38452  Biso   1.000  H
  H53      1.0000 0.65789  0.66075  0.42535  Biso   1.000  H
  H54      1.0000 0.71798  0.72684  0.31122  Biso   1.000  H
  H55      1.0000 0.67817  0.70944  0.27035  Biso   1.000  H
  H56      1.0000 0.69717  0.67894  0.28712  Biso   1.000  H
  C45      1.0000 0.50052  0.56786  0.61777  Biso   1.000  C
  C46      1.0000 0.53395  0.56588  0.65647  Biso   1.000  C
  H57      1.0000 0.49943  0.55317  0.58406  Biso   1.000  H
  H58      1.0000 0.47183  0.55337  0.63446  Biso   1.000  H
  H59      1.0000 0.50933  0.59806  0.61037  Biso   1.000  H
  C47      1.0000 0.51044  0.51739  0.67267  Biso   1.000  C
  H60      1.0000 0.56345  0.57697  0.64088  Biso   1.000  H
  C48      1.0000 0.53264  0.59047  0.70785  Biso   1.000  C
  C49      1.0000 0.53828  0.50461  0.70785  Biso   1.000  C
  H61      1.0000 0.50174  0.49946  0.63978  Biso   1.000  H
  H62      1.0000 0.48383  0.51059  0.69255  Biso   1.000  H
  H63      1.0000 0.54943  0.58707  0.73648  Biso   1.000  H
  H64      1.0000 0.54495  0.62127  0.69958  Biso   1.000  H
  H65      1.0000 0.50253  0.57846  0.71955  Biso   1.000  H
  C50      1.0000 0.51021  0.46133  0.73726  Biso   1.000  C
  C51      1.0000 0.57734  0.50600  0.67876  Biso   1.000  C
  H66      1.0000 0.55104  0.52716  0.73656  Biso   1.000  H
  C52      1.0000 0.47577  0.42505  0.71185  Biso   1.000  C
  C53      1.0000 0.51904  0.45556  0.79105  Biso   1.000  C
  C54      1.0000 0.57365  0.49038  0.62538  Biso   1.000  C
  C55      1.0000 0.61754  0.52207  0.70376  Biso   1.000  C
  C56      1.0000 0.44947  0.38435  0.73754  Biso   1.000  C
  H67      1.0000 0.46973  0.42796  0.67557  Biso   1.000  H
  C57      1.0000 0.49405  0.41627  0.81784  Biso   1.000  C
  O13      1.0000 0.55338  0.49005  0.82067  Biso   1.000  O
  C58      1.0000 0.60871  0.49183  0.59658  Biso   1.000  C
  H68      1.0000 0.54623  0.47827  0.60816  Biso   1.000  H
  C59      1.0000 0.65327  0.52442  0.67676  Biso   1.000  C
  O14      1.0000 0.62490  0.53874  0.75726  Biso   1.000  O
  C60      1.0000 0.41234  0.34543  0.70825  Biso   1.000  C
  C61      1.0000 0.45985  0.38138  0.79138  Biso   1.000  C
  O15      1.0000 0.50344  0.41257  0.87237  Biso   1.000  O
  H69      1.0000 0.57454  0.50418  0.80038  Biso   1.000  H
  C62      1.0000 0.60363  0.47510  0.53837  Biso   1.000  C
  C63      1.0000 0.64834  0.50877  0.62366  Biso   1.000  C
  O16      1.0000 0.69389  0.54162  0.70408  Biso   1.000  O
  H70      1.0000 0.60292  0.52366  0.77596  Biso   1.000  H
  C64      1.0000 0.42945  0.31862  0.67917  Biso   1.000  C
  H71      1.0000 0.39243  0.32618  0.73685  Biso   1.000  H
  C65      1.0000 0.38424  0.35708  0.67107  Biso   1.000  C
  O17      1.0000 0.43620  0.34226  0.82128  Biso   1.000  O
  H72      1.0000 0.48614  0.38759  0.88358  Biso   1.000  H
  C66      1.0000 0.58737  0.42594  0.53698  Biso   1.000  C
  H73      1.0000 0.63353  0.48946  0.52307  Biso   1.000  H
  C67      1.0000 0.57732  0.48916  0.50205  Biso   1.000  C
  O18      1.0000 0.68595  0.51167  0.59908  Biso   1.000  O
  H74      1.0000 0.71202  0.54066  0.68375  Biso   1.000  H
  C68      1.0000 0.44572  0.32807  0.62595  Biso   1.000  C
  C69      1.0000 0.42925  0.28277  0.70396  Biso   1.000  C
  H75      1.0000 0.40144  0.37256  0.63908  Biso   1.000  H
  H76      1.0000 0.37722  0.37696  0.69058  Biso   1.000  H
  C70      1.0000 0.34113  0.31638  0.65258  Biso   1.000  C
  H77      1.0000 0.42972  0.32107  0.80128  Biso   1.000  H
  C71      1.0000 0.54294  0.39439  0.53735  Biso   1.000  C
  C72      1.0000 0.61666  0.41059  0.53518  Biso   1.000  C
  H78      1.0000 0.57633  0.47797  0.46535  Biso   1.000  H
  H79      1.0000 0.54722  0.47516  0.51554  Biso   1.000  H
  C73      1.0000 0.59523  0.53897  0.49845  Biso   1.000  C
  H80      1.0000 0.67862  0.48985  0.57985  Biso   1.000  H
  C74      1.0000 0.46064  0.30417  0.59707  Biso   1.000  C
  H81      1.0000 0.44654  0.35206  0.60857  Biso   1.000  H
  C75      1.0000 0.44473  0.25868  0.67717  Biso   1.000  C
  O19      1.0000 0.41379  0.27056  0.75726  Biso   1.000  O
  H82      1.0000 0.34773  0.29357  0.64068  Biso   1.000  H
  C76      1.0000 0.32143  0.32856  0.60435  Biso   1.000  C
  C77      1.0000 0.30902  0.29865  0.70036  Biso   1.000  C
  C78      1.0000 0.52633  0.34886  0.53616  Biso   1.000  C
  H83      1.0000 0.52272  0.40426  0.53857  Biso   1.000  H
  C79      1.0000 0.60205  0.36576  0.53375  Biso   1.000  C
  O20      1.0000 0.66232  0.43964  0.53436  Biso   1.000  O
  H84      1.0000 0.59534  0.55007  0.53538  Biso   1.000  H
  C80      1.0000 0.56534  0.54838  0.46237  Biso   1.000  C
  C81      1.0000 0.64254  0.56287  0.47668  Biso   1.000  C
  C82      1.0000 0.47775  0.31608  0.53845  Biso   1.000  C
  C83      1.0000 0.46003  0.26911  0.62427  Biso   1.000  C
  O21      1.0000 0.44405  0.22319  0.70457  Biso   1.000  O
  H85      1.0000 0.42095  0.29278  0.77567  Biso   1.000  H
  H86      1.0000 0.29465  0.30278  0.59278  Biso   1.000  H
  H87      1.0000 0.31505  0.35107  0.61548  Biso   1.000  H
  H88      1.0000 0.34213  0.33926  0.57465  Biso   1.000  H
  H89      1.0000 0.28204  0.27317  0.68878  Biso   1.000  H
  H90      1.0000 0.32185  0.29057  0.72965  Biso   1.000  H
  H91      1.0000 0.30285  0.32107  0.71288  Biso   1.000  H
  C84      1.0000 0.55763  0.33559  0.53477  Biso   1.000  C
  O22      1.0000 0.63314  0.35167  0.53215  Biso   1.000  O
  H92      1.0000 0.66835  0.46097  0.55396  Biso   1.000  H
  H93      1.0000 0.57684  0.57968  0.46036  Biso   1.000  H
  H94      1.0000 0.56423  0.53696  0.42625  Biso   1.000  H
  H95      1.0000 0.53612  0.53425  0.47767  Biso   1.000  H
  H96      1.0000 0.65303  0.59397  0.47488  Biso   1.000  H
  H97      1.0000 0.66114  0.55766  0.50065  Biso   1.000  H
  H98      1.0000 0.64315  0.55208  0.44077  Biso   1.000  H
  C85      1.0000 0.44952  0.32876  0.50368  Biso   1.000  C
  H99      1.0000 0.47424  0.28888  0.52225  Biso   1.000  H
  O23      1.0000 0.47450  0.24280  0.59916  Biso   1.000  O
  H100     1.0000 0.45375  0.21137  0.68428  Biso   1.000  H
  O24      1.0000 0.54468  0.29060  0.53448  Biso   1.000  O
  H101     1.0000 0.62044  0.32467  0.53158  Biso   1.000  H
  C86      1.0000 0.40295  0.29588  0.49587  Biso   1.000  C
  H102     1.0000 0.46305  0.33718  0.46785  Biso   1.000  H
  H103     1.0000 0.45093  0.35467  0.51996  Biso   1.000  H
  H104     1.0000 0.49594  0.25818  0.57997  Biso   1.000  H
  H105     1.0000 0.52313  0.27706  0.55436  Biso   1.000  H
  C87      1.0000 0.37874  0.31407  0.46535  Biso   1.000  C
  H106     1.0000 0.38892  0.28485  0.53158  Biso   1.000  H
  C88      1.0000 0.39902  0.25765  0.46138  Biso   1.000  C
  H107     1.0000 0.37825  0.33688  0.48666  Biso   1.000  H
  H108     1.0000 0.39334  0.32618  0.43115  Biso   1.000  H
  H109     1.0000 0.34904  0.29086  0.45856  Biso   1.000  H
  H110     1.0000 0.41523  0.24547  0.47857  Biso   1.000  H
  H111     1.0000 0.36855  0.23537  0.45836  Biso   1.000  H
  H112     1.0000 0.41085  0.26828  0.42555  Biso   1.000  H
  C89      1.0000 0.67703  0.64237  0.63295  Biso   1.000  C
  C90      1.0000 0.69146  0.67449  0.68077  Biso   1.000  C
  H113     1.0000 0.67553  0.61536  0.64456  Biso   1.000  H
  H114     1.0000 0.69795  0.65517  0.60366  Biso   1.000  H
  H115     1.0000 0.64842  0.63616  0.62047  Biso   1.000  H
  C91      1.0000 0.69384  0.71757  0.66228  Biso   1.000  C
  H116     1.0000 0.72084  0.68106  0.69267  Biso   1.000  H
  C92      1.0000 0.65953  0.65478  0.72895  Biso   1.000  C
  C93      1.0000 0.73360  0.74569  0.62505  Biso   1.000  C
  H117     1.0000 0.69552  0.73476  0.69426  Biso   1.000  H
  H118     1.0000 0.66693  0.71057  0.64276  Biso   1.000  H
  H119     1.0000 0.65854  0.62797  0.74057  Biso   1.000  H
  H120     1.0000 0.63063  0.64837  0.71787  Biso   1.000  H
  H121     1.0000 0.66954  0.67548  0.75865  Biso   1.000  H
  C94      1.0000 0.77749  0.76279  0.65418  Biso   1.000  C
  C95      1.0000 0.73182  0.78283  0.59576  Biso   1.000  C
  H122     1.0000 0.73294  0.72579  0.59646  Biso   1.000  H
  C96      1.0000 0.81314  0.76256  0.62935  Biso   1.000  C
  C97      1.0000 0.78434  0.77907  0.70735  Biso   1.000  C
  C98      1.0000 0.74513  0.79316  0.54197  Biso   1.000  C
  C99      1.0000 0.71737  0.80911  0.62145  Biso   1.000  C
  O25      1.0000 0.80987  0.74711  0.57605  Biso   1.000  O
  C100     1.0000 0.85274  0.77808  0.65618  Biso   1.000  C
  H123     1.0000 0.76112  0.77986  0.72478  Biso   1.000  H
  C101     1.0000 0.82313  0.79399  0.73628  Biso   1.000  C
  O26      1.0000 0.76062  0.76953  0.51207  Biso   1.000  O
  C102     1.0000 0.74442  0.82736  0.51546  Biso   1.000  C
  C103     1.0000 0.71554  0.84354  0.59605  Biso   1.000  C
  H124     1.0000 0.70843  0.80306  0.65778  Biso   1.000  H
  H125     1.0000 0.79484  0.75427  0.55768  Biso   1.000  H
  O27      1.0000 0.88753  0.77738  0.62877  Biso   1.000  O
  C104     1.0000 0.85761  0.79336  0.70907  Biso   1.000  C
  C105     1.0000 0.82834  0.81109  0.79485  Biso   1.000  C
  H126     1.0000 0.77534  0.76306  0.53207  Biso   1.000  H
  O28      1.0000 0.75753  0.83677  0.46098  Biso   1.000  O
  C106     1.0000 0.73015  0.85238  0.54226  Biso   1.000  C
  C107     1.0000 0.70034  0.87163  0.62546  Biso   1.000  C
  H127     1.0000 0.90905  0.78709  0.64906  Biso   1.000  H
  O29      1.0000 0.89838  0.80782  0.73415  Biso   1.000  O
  C108     1.0000 0.84415  0.85968  0.79714  Biso   1.000  C
  H128     1.0000 0.85203  0.80759  0.81105  Biso   1.000  H
  C109     1.0000 0.78744  0.78286  0.82967  Biso   1.000  C
  H129     1.0000 0.76523  0.81947  0.44977  Biso   1.000  H
  O30      1.0000 0.73002  0.88672  0.51268  Biso   1.000  O
  C110     1.0000 0.73800  0.91068  0.65454  Biso   1.000  C
  H130     1.0000 0.69053  0.88437  0.59674  Biso   1.000  H
  C111     1.0000 0.65974  0.84377  0.66068  Biso   1.000  C
  H131     1.0000 0.90445  0.82928  0.75337  Biso   1.000  H
  C112     1.0000 0.88870  0.89097  0.79858  Biso   1.000  C
  C113     1.0000 0.81523  0.87628  0.79596  Biso   1.000  C
  H132     1.0000 0.79253  0.79636  0.86546  Biso   1.000  H
  H133     1.0000 0.76293  0.78428  0.81334  Biso   1.000  H
  C114     1.0000 0.77376  0.73628  0.83748  Biso   1.000  C
  H134     1.0000 0.73705  0.90788  0.53297  Biso   1.000  H
  C115     1.0000 0.76214  0.95086  0.62955  Biso   1.000  C
  C116     1.0000 0.74996  0.90698  0.70797  Biso   1.000  C
  H135     1.0000 0.66895  0.83509  0.69357  Biso   1.000  H
  H136     1.0000 0.63992  0.81716  0.64076  Biso   1.000  H
  C117     1.0000 0.63473  0.86727  0.67688  Biso   1.000  C
  O31      1.0000 0.92075  0.87800  0.79886  Biso   1.000  O
  C118     1.0000 0.90295  0.93537  0.79956  Biso   1.000  C
  H137     1.0000 0.78514  0.85608  0.79477  Biso   1.000  H
  C119     1.0000 0.82811  0.92068  0.79637  Biso   1.000  C
  H138     1.0000 0.77073  0.72229  0.80177  Biso   1.000  H
  C120     1.0000 0.73135  0.71209  0.86795  Biso   1.000  C
  C121     1.0000 0.80804  0.73235  0.87196  Biso   1.000  C
  O32      1.0000 0.75282  0.95822  0.57605  Biso   1.000  O
  C122     1.0000 0.79554  0.98661  0.65655  Biso   1.000  C
  C123     1.0000 0.78355  0.94204  0.73677  Biso   1.000  C
  H139     1.0000 0.73466  0.87958  0.72515  Biso   1.000  H
  H140     1.0000 0.65314  0.89678  0.69247  Biso   1.000  H
  C124     1.0000 0.59933  0.83386  0.71558  Biso   1.000  C
  C125     1.0000 0.60884  0.86598  0.62546  Biso   1.000  C
  H141     1.0000 0.91273  0.85648  0.77898  Biso   1.000  H
  O33      1.0000 0.94811  0.96647  0.80115  Biso   1.000  O
  C126     1.0000 0.87272  0.95000  0.79817  Biso   1.000  C
  C127     1.0000 0.79519  0.93696  0.79498  Biso   1.000  C
  H142     1.0000 0.70802  0.71156  0.84668  Biso   1.000  H
  H143     1.0000 0.73385  0.72668  0.90215  Biso   1.000  H
  H144     1.0000 0.72485  0.68238  0.87474  Biso   1.000  H
  H145     1.0000 0.83644  0.74856  0.85478  Biso   1.000  H
  H146     1.0000 0.79984  0.70189  0.87495  Biso   1.000  H
  H147     1.0000 0.80923  0.74417  0.90776  Biso   1.000  H
  H148     1.0000 0.74593  0.93627  0.55735  Biso   1.000  H
  C128     1.0000 0.80623  0.98169  0.70965  Biso   1.000  C
  O34      1.0000 0.81898  0.02724  0.62926  Biso   1.000  O
  H149     1.0000 0.61293  0.83277  0.74924  Biso   1.000  H
  H150     1.0000 0.58513  0.80518  0.69885  Biso   1.000  H
  H151     1.0000 0.57795  0.84268  0.72298  Biso   1.000  H
  H152     1.0000 0.62905  0.88279  0.59687  Biso   1.000  H
  H153     1.0000 0.59034  0.87826  0.63376  Biso   1.000  H
  H154     1.0000 0.59073  0.83588  0.61376  Biso   1.000  H
  H155     1.0000 0.96243  0.95376  0.80177  Biso   1.000  H
  O35      1.0000 0.88935  0.99565  0.79894  Biso   1.000  O
  H156     1.0000 0.81074  0.96687  0.81028  Biso   1.000  H
  C129     1.0000 0.75483  0.91068  0.83126  Biso   1.000  C
  O36      1.0000 0.84096  0.01929  0.73427  Biso   1.000  O
  H157     1.0000 0.83804  0.04537  0.64955  Biso   1.000  H
  H158     1.0000 0.87405  0.00166  0.77935  Biso   1.000  H
  H159     1.0000 0.76504  0.90966  0.86795  Biso   1.000  H
  H160     1.0000 0.73875  0.88058  0.81776  Biso   1.000  H
  C130     1.0000 0.72293  0.92857  0.83486  Biso   1.000  C
  H161     1.0000 0.85542  0.01196  0.75346  Biso   1.000  H
  H162     1.0000 0.71194  0.92867  0.79796  Biso   1.000  H
  C131     1.0000 0.68364  0.89867  0.87098  Biso   1.000  C
  C132     1.0000 0.74635  0.97588  0.85666  Biso   1.000  C
  H163     1.0000 0.66385  0.91019  0.87294  Biso   1.000  H
  H164     1.0000 0.69394  0.89758  0.90706  Biso   1.000  H
  H165     1.0000 0.66854  0.86948  0.85568  Biso   1.000  H
  H166     1.0000 0.72573  0.98638  0.85846  Biso   1.000  H
  H167     1.0000 0.77014  0.99446  0.83265  Biso   1.000  H
  H168     1.0000 0.75774  0.97647  0.89258  Biso   1.000  H
  C133     1.0000 0.40900  0.47470  0.79469  Biso   1.000  C
  C134     1.0000 0.37081  0.44040  0.82922  Biso   1.000  C
  H169     1.0000 0.42119  0.50309  0.81191  Biso   1.000  H
  H170     1.0000 0.43132  0.46651  0.79170  Biso   1.000  H
  H171     1.0000 0.39838  0.47589  0.75890  Biso   1.000  H
  C135     1.0000 0.35261  0.39802  0.79870  Biso   1.000  C
  C136     1.0000 0.33789  0.45410  0.83699  Biso   1.000  C
  H172     1.0000 0.38180  0.43740  0.86489  Biso   1.000  H
  H173     1.0000 0.32981  0.37471  0.82001  Biso   1.000  H
  H174     1.0000 0.34050  0.40049  0.76450  Biso   1.000  H
  H175     1.0000 0.37581  0.39151  0.79191  Biso   1.000  H
  C137     1.0000 0.35059  0.49500  0.87180  Biso   1.000  C
  H176     1.0000 0.32948  0.45919  0.80119  Biso   1.000  H
  H177     1.0000 0.31201  0.42961  0.85331  Biso   1.000  H
  C138     1.0000 0.36251  0.48979  0.93038  Biso   1.000  C
  C139     1.0000 0.31780  0.51078  0.86951  Biso   1.000  C
  H178     1.0000 0.37780  0.51871  0.85560  Biso   1.000  H
  C140     1.0000 0.39757  0.52428  0.95758  Biso   1.000  C
  C141     1.0000 0.33860  0.45100  0.95930  Biso   1.000  C
  C142     1.0000 0.33105  0.55535  0.86808  Biso   1.000  C
  C143     1.0000 0.27228  0.48190  0.87069  Biso   1.000  C
  O37      1.0000 0.42388  0.56502  0.93250  Biso   1.000  O
  C144     1.0000 0.40799  0.51940  0.01051  Biso   1.000  C
  H179     1.0000 0.31459  0.42779  0.94191  Biso   1.000  H
  C145     1.0000 0.34804  0.44417  0.01248  Biso   1.000  C
  O38      1.0000 0.37606  0.58740  0.86779  Biso   1.000  O
  C146     1.0000 0.30093  0.56961  0.86709  Biso   1.000  C
  H180     1.0000 0.26240  0.45179  0.87188  Biso   1.000  H
  C147     1.0000 0.24075  0.49477  0.87029  Biso   1.000  C
  H181     1.0000 0.40851  0.57109  0.91328  Biso   1.000  H
  O39      1.0000 0.44348  0.55419  0.03788  Biso   1.000  O
  C148     1.0000 0.38391  0.47982  0.03731  Biso   1.000  C
  C149     1.0000 0.32126  0.40026  0.04160  Biso   1.000  C
  H182     1.0000 0.38960  0.57941  0.88771  Biso   1.000  H
  O40      1.0000 0.31501  0.61480  0.86550  Biso   1.000  O
  C150     1.0000 0.25607  0.53940  0.86849  Biso   1.000  C
  C151     1.0000 0.19156  0.46186  0.87168  Biso   1.000  C
  H183     1.0000 0.45530  0.57572  0.01759  Biso   1.000  H
  O41      1.0000 0.39611  0.47655  0.09061  Biso   1.000  O
  C152     1.0000 0.28232  0.39848  0.07089  Biso   1.000  C
  H184     1.0000 0.34051  0.39960  0.07020  Biso   1.000  H
  C153     1.0000 0.30962  0.36052  0.00438  Biso   1.000  C
  H185     1.0000 0.34199  0.62910  0.86489  Biso   1.000  H
  O42      1.0000 0.22703  0.55601  0.86771  Biso   1.000  O
  C154     1.0000 0.17484  0.45021  0.92989  Biso   1.000  C
  H186     1.0000 0.17721  0.47741  0.85638  Biso   1.000  H
  C155     1.0000 0.17750  0.42149  0.83539  Biso   1.000  C
  H187     1.0000 0.37389  0.46150  0.10902  Biso   1.000  H
  C156     1.0000 0.28530  0.41182  0.12468  Biso   1.000  C
  C157     1.0000 0.24158  0.38402  0.04520  Biso   1.000  C
  H188     1.0000 0.29411  0.36220  0.97239  Biso   1.000  H
  C158     1.0000 0.35030  0.35811  0.98589  Biso   1.000  C
  H189     1.0000 0.28971  0.33361  0.02389  Biso   1.000  H
  H190     1.0000 0.20571  0.54069  0.88730  Biso   1.000  H
  C159     1.0000 0.15790  0.47292  0.95701  Biso   1.000  C
  C160     1.0000 0.17631  0.41660  0.95868  Biso   1.000  C
  H191     1.0000 0.18868  0.43169  0.79870  Biso   1.000  H
  H192     1.0000 0.19150  0.40541  0.84889  Biso   1.000  H
  C161     1.0000 0.12770  0.38960  0.83179  Biso   1.000  C
  O43      1.0000 0.32441  0.42726  0.15459  Biso   1.000  O
  C162     1.0000 0.25040  0.41109  0.15119  Biso   1.000  C
  C163     1.0000 0.20534  0.38220  0.07060  Biso   1.000  C
  H193     1.0000 0.23870  0.37511  0.00888  Biso   1.000  H
  H194     1.0000 0.37311  0.38749  0.97398  Biso   1.000  H
  C164     1.0000 0.33810  0.32622  0.93770  Biso   1.000  C
  C165     1.0000 0.36800  0.34371  0.03371  Biso   1.000  C
  O44      1.0000 0.15500  0.50761  0.93238  Biso   1.000  O
  C166     1.0000 0.14224  0.46219  0.01010  Biso   1.000  C
  H195     1.0000 0.18842  0.40132  0.94150  Biso   1.000  H
  C167     1.0000 0.16066  0.40468  0.01211  Biso   1.000  C
  H196     1.0000 0.11660  0.37861  0.86869  Biso   1.000  H
  C168     1.0000 0.11830  0.35032  0.79571  Biso   1.000  C
  C169     1.0000 0.10381  0.41300  0.80999  Biso   1.000  C
  H197     1.0000 0.34558  0.44199  0.13458  Biso   1.000  H
  O45      1.0000 0.25409  0.42419  0.20568  Biso   1.000  O
  C170     1.0000 0.21109  0.39680  0.12440  Biso   1.000  C
  C171     1.0000 0.16205  0.36699  0.04119  Biso   1.000  C
  H198     1.0000 0.36389  0.32519  0.92608  Biso   1.000  H
  H199     1.0000 0.31561  0.29730  0.94879  Biso   1.000  H
  H200     1.0000 0.32739  0.33619  0.90800  Biso   1.000  H
  H201     1.0000 0.39349  0.34219  0.02209  Biso   1.000  H
  H202     1.0000 0.37611  0.36461  0.06300  Biso   1.000  H
  H203     1.0000 0.34560  0.31509  0.04618  Biso   1.000  H
  H204     1.0000 0.17680  0.52211  0.91320  Biso   1.000  H
  O46      1.0000 0.12504  0.48560  0.03739  Biso   1.000  O
  C172     1.0000 0.14459  0.42882  0.03710  Biso   1.000  C
  H205     1.0000 0.08701  0.33051  0.79371  Biso   1.000  H
  H206     1.0000 0.12971  0.36061  0.75959  Biso   1.000  H
  H207     1.0000 0.13241  0.33520  0.81101  Biso   1.000  H
  H208     1.0000 0.07270  0.39240  0.80819  Biso   1.000  H
  H209     1.0000 0.10899  0.43680  0.83400  Biso   1.000  H
  H210     1.0000 0.11459  0.42439  0.77411  Biso   1.000  H
  H211     1.0000 0.27910  0.43189  0.21689  Biso   1.000  H
  O47      1.0000 0.17665  0.39670  0.15401  Biso   1.000  O
  H212     1.0000 0.13950  0.35721  0.06991  Biso   1.000  H
  C173     1.0000 0.14931  0.32642  0.00601  Biso   1.000  C
  H213     1.0000 0.12599  0.50471  0.01710  Biso   1.000  H
  O48      1.0000 0.12793  0.41951  0.09061  Biso   1.000  O
  H214     1.0000 0.16251  0.40369  0.13368  Biso   1.000  H
  H215     1.0000 0.16720  0.33559  0.97308  Biso   1.000  H
  C174     1.0000 0.10081  0.30139  0.98981  Biso   1.000  C
  H216     1.0000 0.15611  0.30661  0.02589  Biso   1.000  H
  H217     1.0000 0.14301  0.41261  0.10930  Biso   1.000  H
  H218     1.0000 0.08969  0.31981  0.97419  Biso   1.000  H
  C175     1.0000 0.09881  0.26600  0.95108  Biso   1.000  C
  C176     1.0000 0.07620  0.27551  0.04119  Biso   1.000  C
  H219     1.0000 0.11350  0.27961  0.91741  Biso   1.000  H
  H220     1.0000 0.11330  0.25181  0.96781  Biso   1.000  H
  H221     1.0000 0.06862  0.24461  0.94371  Biso   1.000  H
  H222     1.0000 0.07962  0.29571  0.06979  Biso   1.000  H
  H223     1.0000 0.04539  0.25699  0.03289  Biso   1.000  H
  H224     1.0000 0.08818  0.25739  0.05289  Biso   1.000  H
  C177     1.0000 0.32297  0.35764  0.36701  Biso   1.000  C
  C178     1.0000 0.30856  0.32552  0.31923  Biso   1.000  C
  H225     1.0000 0.32449  0.38465  0.35544  Biso   1.000  H
  H226     1.0000 0.30207  0.34484  0.39634  Biso   1.000  H
  H227     1.0000 0.35157  0.36385  0.37953  Biso   1.000  H
  C179     1.0000 0.30618  0.28244  0.33772  Biso   1.000  C
  H228     1.0000 0.27916  0.31892  0.30733  Biso   1.000  H
  C180     1.0000 0.34046  0.34523  0.27105  Biso   1.000  C
  C181     1.0000 0.26641  0.25432  0.37495  Biso   1.000  C
  H229     1.0000 0.30447  0.26525  0.30574  Biso   1.000  H
  H230     1.0000 0.33306  0.28944  0.35724  Biso   1.000  H
  H231     1.0000 0.34148  0.37204  0.25943  Biso   1.000  H
  H232     1.0000 0.36936  0.35164  0.28213  Biso   1.000  H
  H233     1.0000 0.33048  0.32453  0.24135  Biso   1.000  H
  C182     1.0000 0.22253  0.23722  0.34582  Biso   1.000  C
  C183     1.0000 0.26820  0.21718  0.40424  Biso   1.000  C
  H234     1.0000 0.26708  0.27422  0.40354  Biso   1.000  H
  C184     1.0000 0.21568  0.22094  0.29265  Biso   1.000  C
  C185     1.0000 0.18688  0.23745  0.37061  Biso   1.000  C
  C186     1.0000 0.25489  0.20685  0.45803  Biso   1.000  C
  C187     1.0000 0.28265  0.19090  0.37855  Biso   1.000  C
  H235     1.0000 0.23885  0.22012  0.27522  Biso   1.000  H
  C188     1.0000 0.17686  0.20602  0.26372  Biso   1.000  C
  O49      1.0000 0.19012  0.25290  0.42391  Biso   1.000  O
  C189     1.0000 0.14727  0.22193  0.34382  Biso   1.000  C
  O50      1.0000 0.23940  0.23048  0.48793  Biso   1.000  O
  C190     1.0000 0.25557  0.17265  0.48454  Biso   1.000  C
  C191     1.0000 0.28447  0.15647  0.40395  Biso   1.000  C
  H236     1.0000 0.29156  0.19695  0.34222  Biso   1.000  H
  C192     1.0000 0.14241  0.20665  0.29093  Biso   1.000  C
  C193     1.0000 0.17165  0.18892  0.20515  Biso   1.000  C
  H237     1.0000 0.20517  0.24574  0.44232  Biso   1.000  H
  O51      1.0000 0.11249  0.22263  0.37123  Biso   1.000  O
  H238     1.0000 0.22467  0.23692  0.46793  Biso   1.000  H
  O52      1.0000 0.24246  0.16324  0.53902  Biso   1.000  O
  C194     1.0000 0.26987  0.14763  0.45774  Biso   1.000  C
  C195     1.0000 0.29967  0.12838  0.37454  Biso   1.000  C
  O53      1.0000 0.10164  0.19219  0.26585  Biso   1.000  O
  C196     1.0000 0.15587  0.14033  0.20281  Biso   1.000  C
  H239     1.0000 0.14796  0.19242  0.18895  Biso   1.000  H
  C197     1.0000 0.21258  0.21715  0.17033  Biso   1.000  C
  H240     1.0000 0.09097  0.21292  0.35094  Biso   1.000  H
  H241     1.0000 0.23476  0.18054  0.55023  Biso   1.000  H
  O54      1.0000 0.27000  0.11329  0.48732  Biso   1.000  O
  C198     1.0000 0.26199  0.08933  0.34541  Biso   1.000  C
  H242     1.0000 0.30948  0.11564  0.40322  Biso   1.000  H
  C199     1.0000 0.34028  0.15624  0.33932  Biso   1.000  C
  H243     1.0000 0.09557  0.17073  0.24663  Biso   1.000  H
  C200     1.0000 0.11130  0.10904  0.20142  Biso   1.000  C
  C201     1.0000 0.18477  0.12373  0.20404  Biso   1.000  C
  H244     1.0000 0.20749  0.20365  0.13454  Biso   1.000  H
  H245     1.0000 0.23706  0.21573  0.18662  Biso   1.000  H
  C202     1.0000 0.22626  0.26373  0.16252  Biso   1.000  C
  H246     1.0000 0.26297  0.09213  0.46703  Biso   1.000  H
  C203     1.0000 0.23786  0.04912  0.37045  Biso   1.000  C
  C204     1.0000 0.25006  0.09303  0.29203  Biso   1.000  C
  H247     1.0000 0.33107  0.16492  0.30643  Biso   1.000  H
  H248     1.0000 0.36007  0.18285  0.35924  Biso   1.000  H
  C205     1.0000 0.36526  0.13274  0.32312  Biso   1.000  C
  O55      1.0000 0.07927  0.12201  0.20114  Biso   1.000  O
  C206     1.0000 0.09704  0.06464  0.20044  Biso   1.000  C
  H249     1.0000 0.21488  0.14393  0.20523  Biso   1.000  H
  C207     1.0000 0.17191  0.07933  0.20363  Biso   1.000  C
  H250     1.0000 0.22926  0.27772  0.19823  Biso   1.000  H
  C208     1.0000 0.26867  0.28792  0.13205  Biso   1.000  C
  C209     1.0000 0.19196  0.26762  0.12804  Biso   1.000  C
  O56      1.0000 0.24716  0.04176  0.42391  Biso   1.000  O
  C210     1.0000 0.20448  0.01340  0.34345  Biso   1.000  C
  C211     1.0000 0.21647  0.05797  0.26323  Biso   1.000  C
  H251     1.0000 0.26536  0.12043  0.27485  Biso   1.000  H
  H252     1.0000 0.34688  0.10323  0.30753  Biso   1.000  H
  C212     1.0000 0.40066  0.16615  0.28442  Biso   1.000  C
  C213     1.0000 0.39118  0.13403  0.37454  Biso   1.000  C
  H253     1.0000 0.08726  0.14353  0.22102  Biso   1.000  H
  O57      1.0000 0.05188  0.03354  0.19885  Biso   1.000  O
  C214     1.0000 0.12727  0.05001  0.20183  Biso   1.000  C
  C215     1.0000 0.20481  0.06302  0.20502  Biso   1.000  C
  H254     1.0000 0.29196  0.28842  0.15332  Biso   1.000  H
  H255     1.0000 0.26617  0.27333  0.09785  Biso   1.000  H
  H256     1.0000 0.27517  0.31763  0.12521  Biso   1.000  H
  H257     1.0000 0.16357  0.25145  0.14522  Biso   1.000  H
  H258     1.0000 0.20015  0.29812  0.12505  Biso   1.000  H
  H259     1.0000 0.19076  0.25584  0.09224  Biso   1.000  H
  H260     1.0000 0.25406  0.06374  0.44265  Biso   1.000  H
  C216     1.0000 0.19376  0.01832  0.29031  Biso   1.000  C
  O58      1.0000 0.18104  0.97277  0.37074  Biso   1.000  O
  H261     1.0000 0.38706  0.16723  0.25072  Biso   1.000  H
  H262     1.0000 0.41486  0.19483  0.30111  Biso   1.000  H
  H263     1.0000 0.42207  0.15733  0.27702  Biso   1.000  H
  H264     1.0000 0.37097  0.11722  0.40313  Biso   1.000  H
  H265     1.0000 0.40968  0.12175  0.36624  Biso   1.000  H
  H266     1.0000 0.40926  0.16413  0.38624  Biso   1.000  H
  H267     1.0000 0.03756  0.04625  0.19823  Biso   1.000  H
  O59      1.0000 0.11064  0.00436  0.20101  Biso   1.000  O
  H268     1.0000 0.18928  0.03314  0.18972  Biso   1.000  H
  C217     1.0000 0.24516  0.08933  0.16874  Biso   1.000  C
  O60      1.0000 0.15900  0.98072  0.26573  Biso   1.000  O
  H269     1.0000 0.16195  0.95464  0.35045  Biso   1.000  H
  H270     1.0000 0.12594  0.99835  0.22065  Biso   1.000  H
  H271     1.0000 0.23496  0.09032  0.13205  Biso   1.000  H
  H272     1.0000 0.26127  0.11943  0.18224  Biso   1.000  H
  C218     1.0000 0.27706  0.07144  0.16514  Biso   1.000  C
  H273     1.0000 0.14456  0.98802  0.24654  Biso   1.000  H
  H274     1.0000 0.28808  0.07134  0.20204  Biso   1.000  H
  C219     1.0000 0.31637  0.10134  0.12902  Biso   1.000  C
  C220     1.0000 0.25367  0.02413  0.14334  Biso   1.000  C
  H275     1.0000 0.33617  0.08982  0.12701  Biso   1.000  H
  H276     1.0000 0.30606  0.10243  0.09294  Biso   1.000  H
  H277     1.0000 0.33145  0.13053  0.14432  Biso   1.000  H
  H278     1.0000 0.27426  0.01363  0.14154  Biso   1.000  H
  H279     1.0000 0.22988  0.00555  0.16735  Biso   1.000  H
  H280     1.0000 0.24228  0.02354  0.10742  Biso   1.000  H
  C221     1.0000 0.25714  0.39118  0.62546  Biso   1.000  C
  C222     1.0000 0.23252  0.36527  0.67688  Biso   1.000  C
  H281     1.0000 0.25373  0.37098  0.59687  Biso   1.000  H
  H282     1.0000 0.28794  0.40967  0.63376  Biso   1.000  H
  H283     1.0000 0.24515  0.40927  0.61376  Biso   1.000  H
  C223     1.0000 0.18403  0.34028  0.66068  Biso   1.000  C
  H284     1.0000 0.24365  0.34688  0.69247  Biso   1.000  H
  C224     1.0000 0.23452  0.40066  0.71558  Biso   1.000  C
  C225     1.0000 0.17128  0.29968  0.62546  Biso   1.000  C
  H285     1.0000 0.16614  0.33107  0.69357  Biso   1.000  H
  H286     1.0000 0.17723  0.36005  0.64076  Biso   1.000  H
  H287     1.0000 0.21983  0.38706  0.74924  Biso   1.000  H
  H288     1.0000 0.22005  0.41489  0.69885  Biso   1.000  H
  H289     1.0000 0.26473  0.42208  0.72298  Biso   1.000  H
  C226     1.0000 0.12799  0.28446  0.59605  Biso   1.000  C
  C227     1.0000 0.17269  0.26201  0.65454  Biso   1.000  C
  H290     1.0000 0.19385  0.30948  0.59674  Biso   1.000  H
  C228     1.0000 0.12224  0.26987  0.54226  Biso   1.000  C
  C229     1.0000 0.09175  0.28264  0.62145  Biso   1.000  C
  C230     1.0000 0.18875  0.23788  0.62955  Biso   1.000  C
  C231     1.0000 0.15702  0.25006  0.70797  Biso   1.000  C
  O61      1.0000 0.15670  0.27000  0.51268  Biso   1.000  O
  C232     1.0000 0.08293  0.25557  0.51546  Biso   1.000  C
  C233     1.0000 0.05101  0.26818  0.59576  Biso   1.000  C
  H291     1.0000 0.09463  0.29156  0.65778  Biso   1.000  H
  O62      1.0000 0.20541  0.24719  0.57605  Biso   1.000  O
  C234     1.0000 0.19109  0.20447  0.65655  Biso   1.000  C
  C235     1.0000 0.15849  0.21645  0.73677  Biso   1.000  C
  H292     1.0000 0.14492  0.26538  0.72515  Biso   1.000  H
  H293     1.0000 0.17082  0.26297  0.53297  Biso   1.000  H
  O63      1.0000 0.07924  0.24247  0.46098  Biso   1.000  O
  C236     1.0000 0.04805  0.25488  0.54197  Biso   1.000  C
  C237     1.0000 0.01209  0.26643  0.62505  Biso   1.000  C
  H294     1.0000 0.19032  0.25405  0.55735  Biso   1.000  H
  O64      1.0000 0.20829  0.18107  0.62926  Biso   1.000  O
  C238     1.0000 0.17545  0.19378  0.70965  Biso   1.000  C
  C239     1.0000 0.14177  0.20480  0.79498  Biso   1.000  C
  H295     1.0000 0.05424  0.23478  0.44977  Biso   1.000  H
  O65      1.0000 0.00892  0.23940  0.51207  Biso   1.000  O
  C240     1.0000 0.02373  0.30618  0.66228  Biso   1.000  C
  C241     1.0000 0.98530  0.22253  0.65418  Biso   1.000  C
  H296     1.0000 0.99282  0.26706  0.59646  Biso   1.000  H
  H297     1.0000 0.20734  0.16195  0.64955  Biso   1.000  H
  O66      1.0000 0.17833  0.15905  0.73427  Biso   1.000  O
  C242     1.0000 0.09259  0.17192  0.79637  Biso   1.000  C
  H298     1.0000 0.15612  0.18925  0.81028  Biso   1.000  H
  C243     1.0000 0.15584  0.24517  0.83126  Biso   1.000  C
  H299     1.0000 0.98775  0.22467  0.53207  Biso   1.000  H
  H300     1.0000 0.03922  0.30446  0.69426  Biso   1.000  H
  H301     1.0000 0.04364  0.33308  0.64276  Biso   1.000  H
  C244     1.0000 0.98303  0.30856  0.68077  Biso   1.000  C
  C245     1.0000 0.94944  0.18688  0.62935  Biso   1.000  C
  C246     1.0000 0.99473  0.21566  0.70735  Biso   1.000  C
  H302     1.0000 0.15653  0.14456  0.75346  Biso   1.000  H
  C247     1.0000 0.07727  0.12726  0.79817  Biso   1.000  C
  C248     1.0000 0.06105  0.18476  0.79596  Biso   1.000  C
  H303     1.0000 0.14465  0.23497  0.86795  Biso   1.000  H
  H304     1.0000 0.14185  0.26128  0.81776  Biso   1.000  H
  C249     1.0000 0.20563  0.27706  0.83486  Biso   1.000  C
  H305     1.0000 0.96022  0.27918  0.69267  Biso   1.000  H
  C250     1.0000 0.99525  0.34048  0.72895  Biso   1.000  C
  C251     1.0000 0.96534  0.32298  0.63295  Biso   1.000  C
  O67      1.0000 0.93722  0.19011  0.57605  Biso   1.000  O
  C252     1.0000 0.92534  0.14726  0.65618  Biso   1.000  C
  H306     1.0000 0.01875  0.23887  0.72478  Biso   1.000  H
  C253     1.0000 0.97082  0.17687  0.73628  Biso   1.000  C
  O68      1.0000 0.10630  0.11065  0.79894  Biso   1.000  O
  C254     1.0000 0.03240  0.09705  0.79956  Biso   1.000  C
  C255     1.0000 0.01553  0.15588  0.79714  Biso   1.000  C
  H307     1.0000 0.07093  0.21487  0.79477  Biso   1.000  H
  H308     1.0000 0.21673  0.28806  0.79796  Biso   1.000  H
  C256     1.0000 0.21505  0.31638  0.87098  Biso   1.000  C
  C257     1.0000 0.22952  0.25366  0.85666  Biso   1.000  C
  H309     1.0000 0.01772  0.36936  0.71787  Biso   1.000  H
  H310     1.0000 0.00594  0.33048  0.75865  Biso   1.000  H
  H311     1.0000 0.96944  0.34147  0.74057  Biso   1.000  H
  H312     1.0000 0.93984  0.32447  0.64456  Biso   1.000  H
  H313     1.0000 0.95722  0.30205  0.60366  Biso   1.000  H
  H314     1.0000 0.98773  0.35157  0.62047  Biso   1.000  H
  H315     1.0000 0.95944  0.20516  0.55768  Biso   1.000  H
  O69      1.0000 0.88985  0.11247  0.62877  Biso   1.000  O
  C258     1.0000 0.93578  0.14241  0.70907  Biso   1.000  C
  C259     1.0000 0.98274  0.17166  0.79485  Biso   1.000  C
  H316     1.0000 0.12762  0.12597  0.77935  Biso   1.000  H
  C260     1.0000 0.00228  0.11131  0.79858  Biso   1.000  C
  O70      1.0000 0.01833  0.05186  0.80115  Biso   1.000  O
  H317     1.0000 0.24632  0.33615  0.87294  Biso   1.000  H
  H318     1.0000 0.20364  0.30608  0.90706  Biso   1.000  H
  H319     1.0000 0.20093  0.33147  0.85568  Biso   1.000  H
  H320     1.0000 0.26063  0.27426  0.85846  Biso   1.000  H
  H321     1.0000 0.22434  0.22986  0.83265  Biso   1.000  H
  H322     1.0000 0.21874  0.24227  0.89258  Biso   1.000  H
  H323     1.0000 0.87805  0.09098  0.64906  Biso   1.000  H
  O71      1.0000 0.90945  0.10164  0.73415  Biso   1.000  O
  H324     1.0000 0.95554  0.14796  0.81105  Biso   1.000  H
  C261     1.0000 0.99544  0.21256  0.82967  Biso   1.000  C
  O72      1.0000 0.95727  0.07926  0.79886  Biso   1.000  O
  H325     1.0000 0.99134  0.03757  0.80177  Biso   1.000  H
  H326     1.0000 0.92482  0.09557  0.75337  Biso   1.000  H
  H327     1.0000 0.00385  0.20748  0.86546  Biso   1.000  H
  H328     1.0000 0.02133  0.23705  0.81334  Biso   1.000  H
  C262     1.0000 0.96252  0.22626  0.83748  Biso   1.000  C
  H329     1.0000 0.94375  0.08728  0.77898  Biso   1.000  H
  H330     1.0000 0.95153  0.22926  0.80177  Biso   1.000  H
  C263     1.0000 0.98073  0.26868  0.86795  Biso   1.000  C
  C264     1.0000 0.92433  0.19196  0.87196  Biso   1.000  C
  H331     1.0000 0.00354  0.29198  0.84668  Biso   1.000  H
  H332     1.0000 0.99283  0.26617  0.90215  Biso   1.000  H
  H333     1.0000 0.95754  0.27518  0.87474  Biso   1.000  H
  H334     1.0000 0.91214  0.16357  0.85478  Biso   1.000  H
  H335     1.0000 0.90203  0.20018  0.87495  Biso   1.000  H
  H336     1.0000 0.93495  0.19077  0.90776  Biso   1.000  H
  C265     1.0000 0.58700  0.69079  0.80999  Biso   1.000  C
  C266     1.0000 0.61039  0.73810  0.83179  Biso   1.000  C
  H337     1.0000 0.60759  0.68030  0.80819  Biso   1.000  H
  H338     1.0000 0.56321  0.67221  0.83400  Biso   1.000  H
  H339     1.0000 0.57561  0.69020  0.77411  Biso   1.000  H
  C267     1.0000 0.57849  0.75599  0.83539  Biso   1.000  C
  H340     1.0000 0.62141  0.73800  0.86869  Biso   1.000  H
  C268     1.0000 0.64971  0.76801  0.79571  Biso   1.000  C
  C269     1.0000 0.53816  0.72971  0.87168  Biso   1.000  C
  H341     1.0000 0.56831  0.75701  0.79870  Biso   1.000  H
  H342     1.0000 0.59460  0.78610  0.84889  Biso   1.000  H
  H343     1.0000 0.66952  0.75652  0.79371  Biso   1.000  H
  H344     1.0000 0.63939  0.76910  0.75959  Biso   1.000  H
  H345     1.0000 0.66478  0.79719  0.81101  Biso   1.000  H
  C270     1.0000 0.54980  0.72463  0.92989  Biso   1.000  C
  C271     1.0000 0.50524  0.74599  0.87029  Biso   1.000  C
  H346     1.0000 0.52261  0.69981  0.85638  Biso   1.000  H
  C272     1.0000 0.52709  0.68498  0.95701  Biso   1.000  C
  C273     1.0000 0.58339  0.75969  0.95868  Biso   1.000  C
  C274     1.0000 0.46060  0.71667  0.86849  Biso   1.000  C
  C275     1.0000 0.51810  0.79039  0.87069  Biso   1.000  C
  O73      1.0000 0.49236  0.64738  0.93238  Biso   1.000  O
  C276     1.0000 0.53781  0.68006  0.01010  Biso   1.000  C
  H347     1.0000 0.59871  0.78712  0.94150  Biso   1.000  H
  C277     1.0000 0.59533  0.75599  0.01211  Biso   1.000  C
  O74      1.0000 0.44397  0.67102  0.86771  Biso   1.000  O
  C278     1.0000 0.43037  0.73130  0.86709  Biso   1.000  C
  C279     1.0000 0.48921  0.80699  0.86951  Biso   1.000  C
  H348     1.0000 0.54821  0.81059  0.87188  Biso   1.000  H
  H349     1.0000 0.47790  0.65471  0.91320  Biso   1.000  H
  O75      1.0000 0.51440  0.63943  0.03739  Biso   1.000  O
  C280     1.0000 0.57121  0.71582  0.03710  Biso   1.000  C
  C281     1.0000 0.63301  0.79504  0.04119  Biso   1.000  C
  H350     1.0000 0.45930  0.66501  0.88730  Biso   1.000  H
  O76      1.0000 0.38521  0.70020  0.86550  Biso   1.000  O
  C282     1.0000 0.44463  0.77570  0.86808  Biso   1.000  C
  C283     1.0000 0.50500  0.85562  0.87180  Biso   1.000  C
  H351     1.0000 0.49531  0.62130  0.01710  Biso   1.000  H
  O77      1.0000 0.58051  0.70845  0.09061  Biso   1.000  O
  C284     1.0000 0.61781  0.82314  0.07060  Biso   1.000  C
  H352     1.0000 0.64282  0.78230  0.06991  Biso   1.000  H
  C285     1.0000 0.67361  0.82290  0.00601  Biso   1.000  C
  H353     1.0000 0.37089  0.71291  0.86489  Biso   1.000  H
  O78      1.0000 0.41260  0.78867  0.86779  Biso   1.000  O
  C286     1.0000 0.51020  0.87272  0.93038  Biso   1.000  C
  H354     1.0000 0.48130  0.85912  0.85560  Biso   1.000  H
  C287     1.0000 0.54591  0.88381  0.83699  Biso   1.000  C
  H355     1.0000 0.58739  0.73041  0.10930  Biso   1.000  H
  C288     1.0000 0.60320  0.81429  0.12440  Biso   1.000  C
  C289     1.0000 0.61598  0.85757  0.04520  Biso   1.000  C
  H356     1.0000 0.66442  0.83162  0.97308  Biso   1.000  H
  C290     1.0000 0.69859  0.79940  0.98981  Biso   1.000  C
  H357     1.0000 0.69340  0.84951  0.02589  Biso   1.000  H
  H358     1.0000 0.42059  0.81020  0.88771  Biso   1.000  H
  C291     1.0000 0.47574  0.87331  0.95758  Biso   1.000  C
  C292     1.0000 0.54901  0.88761  0.95930  Biso   1.000  C
  H359     1.0000 0.54082  0.87031  0.80119  Biso   1.000  H
  H360     1.0000 0.57039  0.88239  0.85331  Biso   1.000  H
  C293     1.0000 0.55959  0.93039  0.82922  Biso   1.000  C
  O79      1.0000 0.60333  0.77996  0.15401  Biso   1.000  O
  C294     1.0000 0.58890  0.83931  0.15119  Biso   1.000  C
  H361     1.0000 0.62489  0.86361  0.00888  Biso   1.000  H
  C295     1.0000 0.60153  0.88384  0.07089  Biso   1.000  C
  H362     1.0000 0.68021  0.76989  0.97419  Biso   1.000  H
  C296     1.0000 0.73399  0.83281  0.95108  Biso   1.000  C
  C297     1.0000 0.72453  0.80072  0.04119  Biso   1.000  C
  O80      1.0000 0.43497  0.85885  0.93250  Biso   1.000  O
  C298     1.0000 0.48061  0.88860  0.01051  Biso   1.000  C
  H363     1.0000 0.57220  0.88681  0.94191  Biso   1.000  H
  C299     1.0000 0.55586  0.90388  0.01248  Biso   1.000  C
  H364     1.0000 0.56261  0.94442  0.86489  Biso   1.000  H
  C300     1.0000 0.60201  0.95462  0.79870  Biso   1.000  C
  C301     1.0000 0.52531  0.93432  0.79469  Biso   1.000  C
  H365     1.0000 0.59630  0.75880  0.13368  Biso   1.000  H
  O81      1.0000 0.57579  0.82990  0.20568  Biso   1.000  O
  C302     1.0000 0.58822  0.87351  0.12468  Biso   1.000  C
  C303     1.0000 0.59975  0.92098  0.04160  Biso   1.000  C
  H366     1.0000 0.72039  0.83390  0.91741  Biso   1.000  H
  H367     1.0000 0.74819  0.86149  0.96781  Biso   1.000  H
  H368     1.0000 0.75540  0.82399  0.94371  Biso   1.000  H
  H369     1.0000 0.70432  0.78392  0.06979  Biso   1.000  H
  H370     1.0000 0.74301  0.78841  0.03289  Biso   1.000  H
  H371     1.0000 0.74259  0.83079  0.05289  Biso   1.000  H
  H372     1.0000 0.42890  0.83740  0.91328  Biso   1.000  H
  O82      1.0000 0.44582  0.88929  0.03788  Biso   1.000  O
  C304     1.0000 0.52021  0.90411  0.03731  Biso   1.000  C
  H373     1.0000 0.62530  0.95511  0.82001  Biso   1.000  H
  H374     1.0000 0.59950  0.94000  0.76450  Biso   1.000  H
  H375     1.0000 0.60850  0.98430  0.79191  Biso   1.000  H
  H376     1.0000 0.49691  0.91811  0.81191  Biso   1.000  H
  H377     1.0000 0.53350  0.96482  0.79170  Biso   1.000  H
  H378     1.0000 0.52409  0.92250  0.75890  Biso   1.000  H
  H379     1.0000 0.56809  0.84720  0.21689  Biso   1.000  H
  O83      1.0000 0.57273  0.89715  0.15459  Biso   1.000  O
  H380     1.0000 0.60042  0.94092  0.07020  Biso   1.000  H
  C305     1.0000 0.63951  0.94911  0.00438  Biso   1.000  C
  H381     1.0000 0.42431  0.87962  0.01759  Biso   1.000  H
  O84      1.0000 0.52345  0.91956  0.09061  Biso   1.000  O
  H382     1.0000 0.55802  0.90362  0.13458  Biso   1.000  H
  H383     1.0000 0.63780  0.93191  0.97239  Biso   1.000  H
  C306     1.0000 0.64191  0.99222  0.98589  Biso   1.000  C
  H384     1.0000 0.66639  0.95610  0.02389  Biso   1.000  H
  H385     1.0000 0.53851  0.91240  0.10902  Biso   1.000  H
  H386     1.0000 0.61251  0.98562  0.97398  Biso   1.000  H
  C307     1.0000 0.67382  0.01189  0.93770  Biso   1.000  C
  C308     1.0000 0.65633  0.02431  0.03371  Biso   1.000  C
  H387     1.0000 0.66381  0.99120  0.90800  Biso   1.000  H
  H388     1.0000 0.67484  0.03870  0.92608  Biso   1.000  H
  H389     1.0000 0.70272  0.01830  0.94879  Biso   1.000  H
  H390     1.0000 0.65782  0.05131  0.02209  Biso   1.000  H
  H391     1.0000 0.63540  0.01150  0.06300  Biso   1.000  H
  H392     1.0000 0.68490  0.03051  0.04618  Biso   1.000  H
  C309     1.0000 0.74288  0.60883  0.37454  Biso   1.000  C
  C310     1.0000 0.76747  0.63474  0.32312  Biso   1.000  C
  H393     1.0000 0.74626  0.62903  0.40313  Biso   1.000  H
  H394     1.0000 0.71208  0.59034  0.36624  Biso   1.000  H
  H395     1.0000 0.75487  0.59074  0.38624  Biso   1.000  H
  C311     1.0000 0.81596  0.65973  0.33932  Biso   1.000  C
  H396     1.0000 0.75636  0.65313  0.30753  Biso   1.000  H
  C312     1.0000 0.76547  0.59935  0.28442  Biso   1.000  C
  C313     1.0000 0.82871  0.70033  0.37454  Biso   1.000  C
  H397     1.0000 0.83388  0.66894  0.30643  Biso   1.000  H
  H398     1.0000 0.82278  0.63992  0.35924  Biso   1.000  H
  H399     1.0000 0.78019  0.61295  0.25072  Biso   1.000  H
  H400     1.0000 0.77997  0.58512  0.30111  Biso   1.000  H
  H401     1.0000 0.73526  0.57793  0.27702  Biso   1.000  H
  C314     1.0000 0.87203  0.71555  0.40395  Biso   1.000  C
  C315     1.0000 0.82733  0.73800  0.34541  Biso   1.000  C
  H402     1.0000 0.80617  0.69053  0.40322  Biso   1.000  H
  C316     1.0000 0.87778  0.73014  0.45774  Biso   1.000  C
  C317     1.0000 0.90827  0.71737  0.37855  Biso   1.000  C
  C318     1.0000 0.81127  0.76213  0.37045  Biso   1.000  C
  C319     1.0000 0.84297  0.74995  0.29203  Biso   1.000  C
  O85      1.0000 0.84329  0.73001  0.48732  Biso   1.000  O
  C320     1.0000 0.91706  0.74444  0.48454  Biso   1.000  C
  H403     1.0000 0.90537  0.70842  0.34222  Biso   1.000  H
  C321     1.0000 0.94899  0.73179  0.40424  Biso   1.000  C
  O86      1.0000 0.79460  0.75282  0.42391  Biso   1.000  O
  C322     1.0000 0.80893  0.79554  0.34345  Biso   1.000  C
  C323     1.0000 0.84152  0.78352  0.26323  Biso   1.000  C
  H404     1.0000 0.85507  0.73463  0.27485  Biso   1.000  H
  H405     1.0000 0.82917  0.73704  0.46703  Biso   1.000  H
  O87      1.0000 0.92078  0.75754  0.53902  Biso   1.000  O
  C324     1.0000 0.95197  0.74513  0.45803  Biso   1.000  C
  C325     1.0000 0.98790  0.73358  0.37495  Biso   1.000  C
  H406     1.0000 0.80965  0.74592  0.44265  Biso   1.000  H
  O88      1.0000 0.79170  0.81894  0.37074  Biso   1.000  O
  C326     1.0000 0.82457  0.80623  0.29031  Biso   1.000  C
  C327     1.0000 0.85822  0.79521  0.20502  Biso   1.000  C
  H407     1.0000 0.94578  0.76523  0.55023  Biso   1.000  H
  O89      1.0000 0.99110  0.76061  0.48793  Biso   1.000  O
  C328     1.0000 0.97626  0.69383  0.33772  Biso   1.000  C
  C329     1.0000 0.01469  0.77748  0.34582  Biso   1.000  C
  H408     1.0000 0.00717  0.73295  0.40354  Biso   1.000  H
  H409     1.0000 0.79266  0.83802  0.35045  Biso   1.000  H
  O90      1.0000 0.82169  0.84096  0.26573  Biso   1.000  O
  C330     1.0000 0.90740  0.82809  0.20363  Biso   1.000  C
  H410     1.0000 0.84385  0.81072  0.18972  Biso   1.000  H
  C331     1.0000 0.84418  0.75484  0.16874  Biso   1.000  C
  H411     1.0000 0.01227  0.77534  0.46793  Biso   1.000  H
  H412     1.0000 0.96077  0.69555  0.30574  Biso   1.000  H
  H413     1.0000 0.95638  0.66693  0.35724  Biso   1.000  H
  C332     1.0000 0.01699  0.69145  0.31923  Biso   1.000  C
  C333     1.0000 0.05058  0.81313  0.37061  Biso   1.000  C
  C334     1.0000 0.00528  0.78435  0.29265  Biso   1.000  C
  H414     1.0000 0.84349  0.85545  0.24654  Biso   1.000  H
  C335     1.0000 0.92275  0.87275  0.20183  Biso   1.000  C
  C336     1.0000 0.93897  0.81525  0.20404  Biso   1.000  C
  H415     1.0000 0.85537  0.76504  0.13205  Biso   1.000  H
  H416     1.0000 0.85817  0.73873  0.18224  Biso   1.000  H
  C337     1.0000 0.79436  0.72295  0.16514  Biso   1.000  C
  H417     1.0000 0.03977  0.72083  0.30733  Biso   1.000  H
  C338     1.0000 0.00477  0.65953  0.27105  Biso   1.000  C
  C339     1.0000 0.03467  0.67703  0.36701  Biso   1.000  C
  O91      1.0000 0.06277  0.80990  0.42391  Biso   1.000  O
  C340     1.0000 0.07468  0.85275  0.34382  Biso   1.000  C
  H418     1.0000 0.98127  0.76114  0.27522  Biso   1.000  H
  C341     1.0000 0.02917  0.82314  0.26372  Biso   1.000  C
  O92      1.0000 0.89372  0.88936  0.20101  Biso   1.000  O
  C342     1.0000 0.96759  0.90296  0.20044  Biso   1.000  C
  C343     1.0000 0.98446  0.84413  0.20281  Biso   1.000  C
  H419     1.0000 0.92906  0.78514  0.20523  Biso   1.000  H
  H420     1.0000 0.78329  0.71195  0.20204  Biso   1.000  H
  C344     1.0000 0.78497  0.68363  0.12902  Biso   1.000  C
  C345     1.0000 0.77047  0.74635  0.14334  Biso   1.000  C
  H421     1.0000 0.98227  0.63065  0.28213  Biso   1.000  H
  H422     1.0000 0.99408  0.66953  0.24135  Biso   1.000  H
  H423     1.0000 0.03058  0.65854  0.25943  Biso   1.000  H
  H424     1.0000 0.06018  0.67554  0.35544  Biso   1.000  H
  H425     1.0000 0.04278  0.69792  0.39634  Biso   1.000  H
  H426     1.0000 0.01226  0.64844  0.37953  Biso   1.000  H
  H427     1.0000 0.04058  0.79484  0.44232  Biso   1.000  H
  O93      1.0000 0.11017  0.88754  0.37123  Biso   1.000  O
  C346     1.0000 0.06424  0.85760  0.29093  Biso   1.000  C
  C347     1.0000 0.01728  0.82835  0.20515  Biso   1.000  C
  H428     1.0000 0.87237  0.87404  0.22065  Biso   1.000  H
  O94      1.0000 0.98165  0.94812  0.19885  Biso   1.000  O
  C348     1.0000 0.99774  0.88870  0.20142  Biso   1.000  C
  H429     1.0000 0.75365  0.66382  0.12701  Biso   1.000  H
  H430     1.0000 0.79638  0.69393  0.09294  Biso   1.000  H
  H431     1.0000 0.79907  0.66854  0.14432  Biso   1.000  H
  H432     1.0000 0.73939  0.72575  0.14154  Biso   1.000  H
  H433     1.0000 0.77568  0.77015  0.16735  Biso   1.000  H
  H434     1.0000 0.78128  0.75774  0.10742  Biso   1.000  H
  H435     1.0000 0.12197  0.90903  0.35094  Biso   1.000  H
  O95      1.0000 0.09054  0.89837  0.26585  Biso   1.000  O
  H436     1.0000 0.04448  0.85205  0.18895  Biso   1.000  H
  C349     1.0000 0.00458  0.78745  0.17033  Biso   1.000  C
  H437     1.0000 0.00868  0.96244  0.19823  Biso   1.000  H
  O96      1.0000 0.04272  0.92075  0.20114  Biso   1.000  O
  H438     1.0000 0.07517  0.90444  0.24663  Biso   1.000  H
  H439     1.0000 0.99617  0.79253  0.13454  Biso   1.000  H
  H440     1.0000 0.97868  0.76292  0.18662  Biso   1.000  H
  C350     1.0000 0.03747  0.77375  0.16252  Biso   1.000  C
  H441     1.0000 0.05627  0.91273  0.22102  Biso   1.000  H
  H442     1.0000 0.04849  0.77075  0.19823  Biso   1.000  H
  C351     1.0000 0.01926  0.73133  0.13205  Biso   1.000  C
  C352     1.0000 0.07568  0.80805  0.12804  Biso   1.000  C
  H443     1.0000 0.99646  0.70803  0.15332  Biso   1.000  H
  H444     1.0000 0.00716  0.73384  0.09785  Biso   1.000  H
  H445     1.0000 0.04248  0.72483  0.12521  Biso   1.000  H
  H446     1.0000 0.08788  0.83644  0.14522  Biso   1.000  H
  H447     1.0000 0.09796  0.79983  0.12505  Biso   1.000  H
  H448     1.0000 0.06507  0.80924  0.09224  Biso   1.000  H
  C353     1.0000 0.59099  0.52531  0.20531  Biso   1.000  C
  C354     1.0000 0.62921  0.55961  0.17078  Biso   1.000  C
  H449     1.0000 0.57880  0.49692  0.18809  Biso   1.000  H
  H450     1.0000 0.56870  0.53349  0.20830  Biso   1.000  H
  H451     1.0000 0.60159  0.52409  0.24110  Biso   1.000  H
  C355     1.0000 0.66210  0.54591  0.16301  Biso   1.000  C
  H452     1.0000 0.61819  0.56261  0.13511  Biso   1.000  H
  C356     1.0000 0.64740  0.60199  0.20130  Biso   1.000  C
  C357     1.0000 0.64940  0.50501  0.12820  Biso   1.000  C
  H453     1.0000 0.67049  0.54079  0.19881  Biso   1.000  H
  H454     1.0000 0.68801  0.57040  0.14669  Biso   1.000  H
  H455     1.0000 0.67021  0.62530  0.17999  Biso   1.000  H
  H456     1.0000 0.65952  0.59952  0.23550  Biso   1.000  H
  H457     1.0000 0.62421  0.60850  0.20809  Biso   1.000  H
  C358     1.0000 0.63750  0.51019  0.06958  Biso   1.000  C
  C359     1.0000 0.68222  0.48923  0.13049  Biso   1.000  C
  H458     1.0000 0.62220  0.48130  0.14440  Biso   1.000  H
  C360     1.0000 0.60242  0.47573  0.04242  Biso   1.000  C
  C361     1.0000 0.66139  0.54901  0.04070  Biso   1.000  C
  C362     1.0000 0.66893  0.44463  0.13188  Biso   1.000  C
  C363     1.0000 0.72771  0.51811  0.12931  Biso   1.000  C
  O97      1.0000 0.57612  0.43496  0.06750  Biso   1.000  O
  C364     1.0000 0.59200  0.48061  0.98949  Biso   1.000  C
  H459     1.0000 0.68541  0.57222  0.05809  Biso   1.000  H
  C365     1.0000 0.65197  0.55584  0.98748  Biso   1.000  C
  O98      1.0000 0.62395  0.41261  0.13221  Biso   1.000  O
  C366     1.0000 0.69907  0.43037  0.13291  Biso   1.000  C
  H460     1.0000 0.73762  0.54822  0.12812  Biso   1.000  H
  C367     1.0000 0.75927  0.50524  0.12971  Biso   1.000  C
  H461     1.0000 0.59151  0.42892  0.08668  Biso   1.000  H
  O99      1.0000 0.55651  0.44582  0.96212  Biso   1.000  O
  C368     1.0000 0.61611  0.52019  0.96269  Biso   1.000  C
  C369     1.0000 0.67876  0.59975  0.95840  Biso   1.000  C
  H462     1.0000 0.61040  0.42060  0.11229  Biso   1.000  H
  O100     1.0000 0.68501  0.38521  0.13450  Biso   1.000  O
  C370     1.0000 0.74393  0.46061  0.13151  Biso   1.000  C
  C371     1.0000 0.80846  0.53815  0.12828  Biso   1.000  C
  H463     1.0000 0.54469  0.42429  0.98241  Biso   1.000  H
  O101     1.0000 0.60391  0.52346  0.90939  Biso   1.000  O
  C372     1.0000 0.71767  0.60153  0.92911  Biso   1.000  C
  H464     1.0000 0.65951  0.60041  0.92980  Biso   1.000  H
  C373     1.0000 0.69040  0.63949  0.99558  Biso   1.000  C
  H465     1.0000 0.65800  0.37091  0.13511  Biso   1.000  H
  O102     1.0000 0.77294  0.44397  0.13229  Biso   1.000  O
  C374     1.0000 0.82517  0.54980  0.07011  Biso   1.000  C
  H466     1.0000 0.82281  0.52260  0.14358  Biso   1.000  H
  C375     1.0000 0.82251  0.57849  0.16461  Biso   1.000  C
  H467     1.0000 0.62610  0.53851  0.89098  Biso   1.000  H
  C376     1.0000 0.71469  0.58819  0.87532  Biso   1.000  C
  C377     1.0000 0.75841  0.61599  0.95480  Biso   1.000  C
  H468     1.0000 0.70591  0.63781  0.02761  Biso   1.000  H
  C378     1.0000 0.64969  0.64190  0.01411  Biso   1.000  C
  H469     1.0000 0.71031  0.66640  0.97611  Biso   1.000  H
  H470     1.0000 0.79431  0.45932  0.11270  Biso   1.000  H
  C379     1.0000 0.84212  0.52709  0.04299  Biso   1.000  C
  C380     1.0000 0.82371  0.58341  0.04132  Biso   1.000  C
  H471     1.0000 0.81129  0.56829  0.20130  Biso   1.000  H
  H472     1.0000 0.80849  0.59460  0.15111  Biso   1.000  H
  C381     1.0000 0.87232  0.61041  0.16821  Biso   1.000  C
  O103     1.0000 0.67558  0.57275  0.84541  Biso   1.000  O
  C382     1.0000 0.74960  0.58889  0.84881  Biso   1.000  C
  C383     1.0000 0.79465  0.61781  0.92940  Biso   1.000  C
  H473     1.0000 0.76129  0.62490  0.99108  Biso   1.000  H
  H474     1.0000 0.62689  0.61249  0.02602  Biso   1.000  H
  C384     1.0000 0.66189  0.67379  0.06230  Biso   1.000  C
  C385     1.0000 0.63199  0.65630  0.96629  Biso   1.000  C
  O104     1.0000 0.84501  0.49240  0.06762  Biso   1.000  O
  C386     1.0000 0.85775  0.53782  0.98990  Biso   1.000  C
  C387     1.0000 0.83933  0.59532  0.98789  Biso   1.000  C
  H475     1.0000 0.81160  0.59869  0.05850  Biso   1.000  H
  H476     1.0000 0.88342  0.62140  0.13131  Biso   1.000  H
  C388     1.0000 0.88170  0.64969  0.20429  Biso   1.000  C
  C389     1.0000 0.89621  0.58701  0.19001  Biso   1.000  C
  H477     1.0000 0.65439  0.55799  0.86542  Biso   1.000  H
  O105     1.0000 0.74590  0.57582  0.79428  Biso   1.000  O
  C390     1.0000 0.78890  0.60321  0.87560  Biso   1.000  C
  C391     1.0000 0.83795  0.63299  0.95881  Biso   1.000  C
  H478     1.0000 0.63610  0.67482  0.07392  Biso   1.000  H
  H479     1.0000 0.68441  0.70271  0.05121  Biso   1.000  H
  H480     1.0000 0.67259  0.66379  0.09200  Biso   1.000  H
  H481     1.0000 0.60650  0.65782  0.97791  Biso   1.000  H
  H482     1.0000 0.62391  0.63540  0.93700  Biso   1.000  H
  H483     1.0000 0.65442  0.68492  0.95382  Biso   1.000  H
  H484     1.0000 0.82322  0.47790  0.08680  Biso   1.000  H
  C392     1.0000 0.85540  0.57119  0.96290  Biso   1.000  C
  O106     1.0000 0.87498  0.51441  0.96261  Biso   1.000  O
  H485     1.0000 0.91301  0.66950  0.20629  Biso   1.000  H
  H486     1.0000 0.87031  0.63939  0.24041  Biso   1.000  H
  H487     1.0000 0.86761  0.66481  0.18899  Biso   1.000  H
  H488     1.0000 0.92732  0.60761  0.19181  Biso   1.000  H
  H489     1.0000 0.89100  0.56320  0.16600  Biso   1.000  H
  H490     1.0000 0.88542  0.57562  0.22589  Biso   1.000  H
  H491     1.0000 0.72091  0.56809  0.78311  Biso   1.000  H
  O107     1.0000 0.82337  0.60331  0.84599  Biso   1.000  O
  H492     1.0000 0.86049  0.64280  0.93009  Biso   1.000  H
  C393     1.0000 0.85071  0.67359  0.99399  Biso   1.000  C
  O108     1.0000 0.87206  0.58050  0.90939  Biso   1.000  O
  H493     1.0000 0.87400  0.49530  0.98290  Biso   1.000  H
  H494     1.0000 0.83751  0.59632  0.86632  Biso   1.000  H
  H495     1.0000 0.83282  0.66442  0.02692  Biso   1.000  H
  C394     1.0000 0.89921  0.69862  0.01019  Biso   1.000  C
  H496     1.0000 0.84391  0.69340  0.97411  Biso   1.000  H
  H497     1.0000 0.85701  0.58740  0.89070  Biso   1.000  H
  H498     1.0000 0.91030  0.68020  0.02581  Biso   1.000  H
  C395     1.0000 0.90121  0.73401  0.04888  Biso   1.000  C
  C396     1.0000 0.92381  0.72450  0.95881  Biso   1.000  C
  H499     1.0000 0.88652  0.72040  0.08259  Biso   1.000  H
  H500     1.0000 0.88669  0.74820  0.03219  Biso   1.000  H
  H501     1.0000 0.93140  0.75540  0.05629  Biso   1.000  H
  H502     1.0000 0.92040  0.70430  0.93021  Biso   1.000  H
  H503     1.0000 0.95460  0.74302  0.96711  Biso   1.000  H
  H504     1.0000 0.91179  0.74259  0.94711  Biso   1.000  H
  O109     1.0000 0.25407  0.54469  0.46552  Biso   1.000  O
  C397     1.0000 0.22204  0.55763  0.46523  Biso   1.000  C
  H505     1.0000 0.24607  0.52313  0.44564  Biso   1.000  H
  C398     1.0000 0.17746  0.52633  0.46384  Biso   1.000  C
  C399     1.0000 0.23629  0.60203  0.46621  Biso   1.000  C
  C400     1.0000 0.16168  0.47774  0.46155  Biso   1.000  C
  C401     1.0000 0.14857  0.54294  0.46261  Biso   1.000  C
  O110     1.0000 0.28145  0.63312  0.46785  Biso   1.000  O
  C402     1.0000 0.20608  0.61668  0.46482  Biso   1.000  C
  C403     1.0000 0.15648  0.46064  0.40293  Biso   1.000  C
  H506     1.0000 0.18537  0.47424  0.47775  Biso   1.000  H
  C404     1.0000 0.12077  0.44955  0.49632  Biso   1.000  C
  H507     1.0000 0.11845  0.52273  0.46143  Biso   1.000  H
  C405     1.0000 0.16143  0.58737  0.46302  Biso   1.000  C
  H508     1.0000 0.29579  0.62045  0.46842  Biso   1.000  H
  O111     1.0000 0.22269  0.66230  0.46564  Biso   1.000  O
  C406     1.0000 0.19094  0.46004  0.37573  Biso   1.000  C
  C407     1.0000 0.11765  0.44572  0.37405  Biso   1.000  C
  H509     1.0000 0.12586  0.46305  0.53211  Biso   1.000  H
  H510     1.0000 0.09628  0.45093  0.48004  Biso   1.000  H
  C408     1.0000 0.10707  0.40294  0.50413  Biso   1.000  C
  C409     1.0000 0.12852  0.60364  0.46163  Biso   1.000  C
  H511     1.0000 0.20738  0.66835  0.44604  Biso   1.000  H
  C410     1.0000 0.18606  0.44473  0.32283  Biso   1.000  C
  O112     1.0000 0.23169  0.47447  0.40084  Biso   1.000  O
  C411     1.0000 0.11080  0.42944  0.32083  Biso   1.000  C
  H512     1.0000 0.09448  0.44654  0.39143  Biso   1.000  H
  H513     1.0000 0.10407  0.38894  0.46842  Biso   1.000  H
  C412     1.0000 0.06467  0.37874  0.53465  Biso   1.000  C
  C413     1.0000 0.14137  0.39904  0.53862  Biso   1.000  C
  C414     1.0000 0.11686  0.60869  0.40342  Biso   1.000  C
  H514     1.0000 0.14407  0.63355  0.47693  Biso   1.000  H
  C415     1.0000 0.08818  0.57733  0.49791  Biso   1.000  C
  O113     1.0000 0.22085  0.44403  0.29543  Biso   1.000  O
  C416     1.0000 0.14647  0.42925  0.29604  Biso   1.000  C
  H515     1.0000 0.23776  0.49593  0.42003  Biso   1.000  H
  C417     1.0000 0.06692  0.41234  0.29175  Biso   1.000  C
  H516     1.0000 0.04138  0.37824  0.51334  Biso   1.000  H
  H517     1.0000 0.06716  0.39333  0.56885  Biso   1.000  H
  H518     1.0000 0.05816  0.34903  0.54144  Biso   1.000  H
  H519     1.0000 0.16977  0.41525  0.52143  Biso   1.000  H
  H520     1.0000 0.13318  0.36854  0.54164  Biso   1.000  H
  H521     1.0000 0.14257  0.41083  0.57445  Biso   1.000  H
  C418     1.0000 0.13957  0.64834  0.37634  Biso   1.000  C
  C419     1.0000 0.08327  0.57364  0.37462  Biso   1.000  C
  H522     1.0000 0.09837  0.57634  0.53465  Biso   1.000  H
  H523     1.0000 0.07206  0.54723  0.48441  Biso   1.000  H
  C420     1.0000 0.05627  0.59523  0.50151  Biso   1.000  C
  H524     1.0000 0.24236  0.45374  0.31572  Biso   1.000  H
  O114     1.0000 0.14323  0.41380  0.24274  Biso   1.000  O
  C421     1.0000 0.06513  0.44948  0.26242  Biso   1.000  C
  H525     1.0000 0.06626  0.39244  0.26315  Biso   1.000  H
  C422     1.0000 0.02717  0.38425  0.32893  Biso   1.000  C
  O115     1.0000 0.17430  0.68594  0.40092  Biso   1.000  O
  C423     1.0000 0.12887  0.65329  0.32324  Biso   1.000  C
  C424     1.0000 0.07134  0.57733  0.32124  Biso   1.000  C
  H526     1.0000 0.06797  0.54624  0.39184  Biso   1.000  H
  H527     1.0000 0.04525  0.59532  0.46462  Biso   1.000  H
  C425     1.0000 0.01697  0.56535  0.53763  Biso   1.000  C
  C426     1.0000 0.07966  0.64253  0.52332  Biso   1.000  C
  H528     1.0000 0.12816  0.42093  0.22433  Biso   1.000  H
  C427     1.0000 0.07846  0.45985  0.20862  Biso   1.000  C
  C428     1.0000 0.05068  0.47576  0.28815  Biso   1.000  C
  H529     1.0000 0.02888  0.40145  0.36092  Biso   1.000  H
  H530     1.0000 0.00027  0.37722  0.30942  Biso   1.000  H
  C429     1.0000 0.02477  0.34114  0.34742  Biso   1.000  C
  H531     1.0000 0.18878  0.67865  0.42015  Biso   1.000  H
  C430     1.0000 0.09547  0.61754  0.29624  Biso   1.000  C
  O116     1.0000 0.15226  0.69390  0.29592  Biso   1.000  O
  C431     1.0000 0.03366  0.53828  0.29211  Biso   1.000  C
  H532     1.0000 0.02728  0.56423  0.57371  Biso   1.000  H
  H533     1.0000 0.00188  0.53614  0.52233  Biso   1.000  H
  H534     1.0000 0.99716  0.57684  0.53964  Biso   1.000  H
  H535     1.0000 0.05907  0.65303  0.52512  Biso   1.000  H
  H536     1.0000 0.10347  0.66115  0.49935  Biso   1.000  H
  H537     1.0000 0.09105  0.64313  0.55923  Biso   1.000  H
  O117     1.0000 0.09393  0.43618  0.17872  Biso   1.000  O
  C432     1.0000 0.07778  0.49405  0.18212  Biso   1.000  C
  C433     1.0000 0.04886  0.51019  0.26274  Biso   1.000  C
  H538     1.0000 0.04179  0.46975  0.32443  Biso   1.000  H
  H539     1.0000 0.05417  0.34774  0.35932  Biso   1.000  H
  C434     1.0000 0.01038  0.30905  0.29964  Biso   1.000  C
  C435     1.0000 0.99287  0.32143  0.39565  Biso   1.000  C
  O118     1.0000 0.08617  0.62490  0.24274  Biso   1.000  O
  H540     1.0000 0.17137  0.71205  0.31625  Biso   1.000  H
  H541     1.0000 0.02385  0.55102  0.26344  Biso   1.000  H
  C436     1.0000 0.99305  0.51042  0.32733  Biso   1.000  C
  H542     1.0000 0.10866  0.42974  0.19872  Biso   1.000  H
  O119     1.0000 0.09087  0.50342  0.12763  Biso   1.000  O
  C437     1.0000 0.06346  0.51904  0.20895  Biso   1.000  C
  H543     1.0000 0.00886  0.28205  0.31122  Biso   1.000  H
  H544     1.0000 0.03126  0.32183  0.27035  Biso   1.000  H
  H545     1.0000 0.98178  0.30285  0.28712  Biso   1.000  H
  H546     1.0000 0.00285  0.34213  0.42535  Biso   1.000  H
  H547     1.0000 0.99185  0.29463  0.40722  Biso   1.000  H
  H548     1.0000 0.96397  0.31503  0.38452  Biso   1.000  H
  H549     1.0000 0.07928  0.60295  0.22404  Biso   1.000  H
  H550     1.0000 0.00226  0.50174  0.36022  Biso   1.000  H
  H551     1.0000 0.97328  0.48385  0.30741  Biso   1.000  H
  C438     1.0000 0.96807  0.53392  0.34353  Biso   1.000  C
  H552     1.0000 0.09858  0.48612  0.11642  Biso   1.000  H
  O120     1.0000 0.06334  0.55340  0.17933  Biso   1.000  O
  H553     1.0000 0.98646  0.56344  0.35912  Biso   1.000  H
  C439     1.0000 0.93268  0.50055  0.38223  Biso   1.000  C
  C440     1.0000 0.94215  0.53264  0.29211  Biso   1.000  C
  H554     1.0000 0.07036  0.57453  0.19962  Biso   1.000  H
  H555     1.0000 0.94627  0.49943  0.41594  Biso   1.000  H
  H556     1.0000 0.91847  0.47183  0.36554  Biso   1.000  H
  H557     1.0000 0.91126  0.50933  0.38963  Biso   1.000  H
  H558     1.0000 0.96236  0.54944  0.26352  Biso   1.000  H
  H559     1.0000 0.92367  0.54495  0.30042  Biso   1.000  H
  H560     1.0000 0.92407  0.50253  0.28041  Biso   1.000  H
  O121     1.0000 0.76831  0.52551  0.59916  Biso   1.000  O
  C441     1.0000 0.80908  0.53997  0.62427  Biso   1.000  C
  H561     1.0000 0.76223  0.50408  0.57997  Biso   1.000  H
  C442     1.0000 0.84354  0.53937  0.59707  Biso   1.000  C
  C443     1.0000 0.81393  0.55528  0.67717  Biso   1.000  C
  C444     1.0000 0.83834  0.52227  0.53845  Biso   1.000  C
  C445     1.0000 0.88234  0.55429  0.62595  Biso   1.000  C
  O122     1.0000 0.77915  0.55598  0.70457  Biso   1.000  O
  C446     1.0000 0.85352  0.57076  0.70396  Biso   1.000  C
  C447     1.0000 0.82256  0.47368  0.53616  Biso   1.000  C
  H562     1.0000 0.81464  0.52577  0.52225  Biso   1.000  H
  C448     1.0000 0.87922  0.55046  0.50368  Biso   1.000  C
  C449     1.0000 0.88917  0.57053  0.67917  Biso   1.000  C
  H563     1.0000 0.90554  0.55347  0.60857  Biso   1.000  H
  H564     1.0000 0.75763  0.54627  0.68428  Biso   1.000  H
  O123     1.0000 0.85679  0.58621  0.75726  Biso   1.000  O
  C450     1.0000 0.77798  0.44238  0.53477  Biso   1.000  C
  C451     1.0000 0.85145  0.45707  0.53735  Biso   1.000  C
  H565     1.0000 0.87413  0.53696  0.46785  Biso   1.000  H
  H566     1.0000 0.90374  0.54908  0.51996  Biso   1.000  H
  C452     1.0000 0.89295  0.59707  0.49587  Biso   1.000  C
  C453     1.0000 0.93310  0.58767  0.70825  Biso   1.000  C
  H567     1.0000 0.87183  0.57908  0.77567  Biso   1.000  H
  C454     1.0000 0.76373  0.39798  0.53375  Biso   1.000  C
  O124     1.0000 0.74594  0.45532  0.53448  Biso   1.000  O
  C455     1.0000 0.83859  0.41264  0.53698  Biso   1.000  C
  H568     1.0000 0.88154  0.47728  0.53857  Biso   1.000  H
  H569     1.0000 0.89595  0.61107  0.53158  Biso   1.000  H
  C456     1.0000 0.93535  0.62127  0.46535  Biso   1.000  C
  C457     1.0000 0.85865  0.60097  0.46138  Biso   1.000  C
  C458     1.0000 0.93486  0.55053  0.73754  Biso   1.000  C
  H570     1.0000 0.93374  0.60757  0.73685  Biso   1.000  H
  C459     1.0000 0.97282  0.61576  0.67107  Biso   1.000  C
  O125     1.0000 0.71855  0.36685  0.53215  Biso   1.000  O
  C460     1.0000 0.79394  0.38333  0.53518  Biso   1.000  C
  H571     1.0000 0.75395  0.47688  0.55436  Biso   1.000  H
  C461     1.0000 0.87147  0.39637  0.53837  Biso   1.000  C
  H572     1.0000 0.95864  0.62177  0.48666  Biso   1.000  H
  H573     1.0000 0.93283  0.60668  0.43115  Biso   1.000  H
  H574     1.0000 0.94183  0.65098  0.45856  Biso   1.000  H
  H575     1.0000 0.83025  0.58476  0.47857  Biso   1.000  H
  H576     1.0000 0.86684  0.63147  0.45836  Biso   1.000  H
  H577     1.0000 0.85744  0.58918  0.42555  Biso   1.000  H
  C462     1.0000 0.94931  0.52425  0.71185  Biso   1.000  C
  C463     1.0000 0.92153  0.54016  0.79138  Biso   1.000  C
  H578     1.0000 0.97114  0.59856  0.63908  Biso   1.000  H
  H579     1.0000 0.99973  0.62276  0.69058  Biso   1.000  H
  C464     1.0000 0.97525  0.65887  0.65258  Biso   1.000  C
  H580     1.0000 0.70423  0.37956  0.53158  Biso   1.000  H
  O126     1.0000 0.77733  0.33771  0.53436  Biso   1.000  O
  C465     1.0000 0.88316  0.39132  0.59658  Biso   1.000  C
  H581     1.0000 0.85595  0.36646  0.52307  Biso   1.000  H
  C466     1.0000 0.91184  0.42268  0.50205  Biso   1.000  C
  C467     1.0000 0.95113  0.48982  0.73726  Biso   1.000  C
  H582     1.0000 0.95823  0.53026  0.67557  Biso   1.000  H
  C468     1.0000 0.92224  0.50596  0.81784  Biso   1.000  C
  O127     1.0000 0.90606  0.56383  0.82128  Biso   1.000  O
  H583     1.0000 0.94585  0.65227  0.64068  Biso   1.000  H
  C469     1.0000 0.98964  0.69096  0.70036  Biso   1.000  C
  C470     1.0000 0.00715  0.67858  0.60435  Biso   1.000  C
  H584     1.0000 0.79264  0.33166  0.55396  Biso   1.000  H
  C471     1.0000 0.86045  0.35167  0.62366  Biso   1.000  C
  C472     1.0000 0.91675  0.42637  0.62538  Biso   1.000  C
  H585     1.0000 0.90165  0.42367  0.46535  Biso   1.000  H
  H586     1.0000 0.92795  0.45278  0.51554  Biso   1.000  H
  C473     1.0000 0.94375  0.40478  0.49845  Biso   1.000  C
  C474     1.0000 0.96633  0.46173  0.70785  Biso   1.000  C
  C475     1.0000 0.93653  0.48097  0.79105  Biso   1.000  C
  O128     1.0000 0.90913  0.49656  0.87237  Biso   1.000  O
  H587     1.0000 0.89133  0.57027  0.80128  Biso   1.000  H
  H588     1.0000 0.99113  0.71796  0.68878  Biso   1.000  H
  H589     1.0000 0.96876  0.67818  0.72965  Biso   1.000  H
  H590     1.0000 0.01824  0.69716  0.71288  Biso   1.000  H
  H591     1.0000 0.99714  0.65788  0.57465  Biso   1.000  H
  H592     1.0000 0.00814  0.70538  0.59278  Biso   1.000  H
  H593     1.0000 0.03605  0.68498  0.61548  Biso   1.000  H
  O129     1.0000 0.82572  0.31407  0.59908  Biso   1.000  O
  C476     1.0000 0.87112  0.34672  0.67676  Biso   1.000  C
  H594     1.0000 0.93205  0.45377  0.60816  Biso   1.000  H
  C477     1.0000 0.92867  0.42264  0.67876  Biso   1.000  C
  H595     1.0000 0.95474  0.40468  0.53538  Biso   1.000  H
  C478     1.0000 0.98305  0.43466  0.46237  Biso   1.000  C
  C479     1.0000 0.92036  0.35748  0.47668  Biso   1.000  C
  H596     1.0000 0.97613  0.44895  0.73656  Biso   1.000  H
  C480     1.0000 0.00692  0.48956  0.67267  Biso   1.000  C
  O130     1.0000 0.93665  0.44661  0.82067  Biso   1.000  O
  H597     1.0000 0.90143  0.51385  0.88358  Biso   1.000  H
  H598     1.0000 0.81124  0.32136  0.57985  Biso   1.000  H
  O131     1.0000 0.84773  0.30611  0.70408  Biso   1.000  O
  C481     1.0000 0.90455  0.38247  0.70376  Biso   1.000  C
  H599     1.0000 0.97274  0.43578  0.42625  Biso   1.000  H
  H600     1.0000 0.99814  0.46387  0.47767  Biso   1.000  H
  H601     1.0000 0.00283  0.42317  0.46036  Biso   1.000  H
  H602     1.0000 0.94095  0.34698  0.47488  Biso   1.000  H
  H603     1.0000 0.89652  0.33886  0.50065  Biso   1.000  H
  H604     1.0000 0.90894  0.35688  0.44077  Biso   1.000  H
  H605     1.0000 0.99773  0.49827  0.63978  Biso   1.000  H
  H606     1.0000 0.02674  0.51616  0.69255  Biso   1.000  H
  C482     1.0000 0.03193  0.46605  0.65647  Biso   1.000  C
  H607     1.0000 0.92966  0.42548  0.80038  Biso   1.000  H
  H608     1.0000 0.82865  0.28796  0.68375  Biso   1.000  H
  O132     1.0000 0.91385  0.37511  0.75726  Biso   1.000  O
  H609     1.0000 0.01354  0.43657  0.64088  Biso   1.000  H
  C483     1.0000 0.06733  0.49946  0.61777  Biso   1.000  C
  C484     1.0000 0.05784  0.46737  0.70785  Biso   1.000  C
  H610     1.0000 0.92073  0.39706  0.77596  Biso   1.000  H
  H611     1.0000 0.05374  0.50058  0.58406  Biso   1.000  H
  H612     1.0000 0.08155  0.52818  0.63446  Biso   1.000  H
  H613     1.0000 0.08873  0.49068  0.61037  Biso   1.000  H
  H614     1.0000 0.03763  0.45057  0.73648  Biso   1.000  H
  H615     1.0000 0.07633  0.45506  0.69958  Biso   1.000  H
  H616     1.0000 0.07595  0.49748  0.71955  Biso   1.000  H
  O133     1.0000 0.43963  0.77732  0.46564  Biso   1.000  O
  C485     1.0000 0.41061  0.79395  0.46482  Biso   1.000  C
  H617     1.0000 0.46096  0.79263  0.44604  Biso   1.000  H
  C486     1.0000 0.36573  0.76372  0.46621  Biso   1.000  C
  C487     1.0000 0.42592  0.83858  0.46302  Biso   1.000  C
  O134     1.0000 0.35167  0.71856  0.46785  Biso   1.000  O
  C488     1.0000 0.33561  0.77798  0.46523  Biso   1.000  C
  C489     1.0000 0.39438  0.85143  0.46261  Biso   1.000  C
  C490     1.0000 0.47510  0.87146  0.46163  Biso   1.000  C
  H618     1.0000 0.32467  0.70423  0.46842  Biso   1.000  H
  O135     1.0000 0.29060  0.74592  0.46552  Biso   1.000  O
  C491     1.0000 0.34886  0.82254  0.46384  Biso   1.000  C
  H619     1.0000 0.40426  0.88153  0.46143  Biso   1.000  H
  C492     1.0000 0.49183  0.88315  0.40342  Biso   1.000  C
  H620     1.0000 0.48947  0.85595  0.47693  Biso   1.000  H
  C493     1.0000 0.48917  0.91184  0.49791  Biso   1.000  C
  H621     1.0000 0.27708  0.75394  0.44564  Biso   1.000  H
  C494     1.0000 0.31609  0.83835  0.46155  Biso   1.000  C
  C495     1.0000 0.50878  0.86044  0.37634  Biso   1.000  C
  C496     1.0000 0.49035  0.91672  0.37462  Biso   1.000  C
  H622     1.0000 0.47798  0.90164  0.53465  Biso   1.000  H
  H623     1.0000 0.47518  0.92795  0.48441  Biso   1.000  H
  C497     1.0000 0.53896  0.94373  0.50151  Biso   1.000  C
  C498     1.0000 0.30415  0.84354  0.40293  Biso   1.000  C
  H624     1.0000 0.28888  0.81465  0.47775  Biso   1.000  H
  C499     1.0000 0.32879  0.87925  0.49632  Biso   1.000  C
  O136     1.0000 0.51166  0.82571  0.40092  Biso   1.000  O
  C500     1.0000 0.52442  0.87113  0.32324  Biso   1.000  C
  H625     1.0000 0.47826  0.93204  0.39184  Biso   1.000  H
  C501     1.0000 0.50602  0.92867  0.32124  Biso   1.000  C
  H626     1.0000 0.55008  0.95475  0.46462  Biso   1.000  H
  C502     1.0000 0.54838  0.98304  0.53763  Biso   1.000  C
  C503     1.0000 0.56287  0.92035  0.52332  Biso   1.000  C
  C504     1.0000 0.26911  0.80907  0.37573  Biso   1.000  C
  C505     1.0000 0.32807  0.88232  0.37405  Biso   1.000  C
  H627     1.0000 0.33718  0.87414  0.53211  Biso   1.000  H
  H628     1.0000 0.35467  0.90375  0.48004  Biso   1.000  H
  C506     1.0000 0.29587  0.89295  0.50413  Biso   1.000  C
  H629     1.0000 0.48988  0.81125  0.42015  Biso   1.000  H
  O137     1.0000 0.54162  0.84773  0.29592  Biso   1.000  O
  C507     1.0000 0.52208  0.90454  0.29624  Biso   1.000  C
  C508     1.0000 0.50461  0.96634  0.29211  Biso   1.000  C
  H630     1.0000 0.53697  0.97274  0.57371  Biso   1.000  H
  H631     1.0000 0.53426  0.99813  0.52233  Biso   1.000  H
  H632     1.0000 0.57967  0.00285  0.53964  Biso   1.000  H
  H633     1.0000 0.59398  0.94095  0.52512  Biso   1.000  H
  H634     1.0000 0.55768  0.89655  0.49935  Biso   1.000  H
  H635     1.0000 0.55207  0.90893  0.55923  Biso   1.000  H
  O138     1.0000 0.24278  0.76830  0.40084  Biso   1.000  O
  C509     1.0000 0.25867  0.81393  0.32283  Biso   1.000  C
  C510     1.0000 0.31863  0.88919  0.32083  Biso   1.000  C
  H636     1.0000 0.35208  0.90553  0.39143  Biso   1.000  H
  H637     1.0000 0.28486  0.89593  0.46842  Biso   1.000  H
  C511     1.0000 0.31406  0.93534  0.53465  Biso   1.000  C
  C512     1.0000 0.25767  0.85862  0.53862  Biso   1.000  C
  H638     1.0000 0.54069  0.82865  0.31625  Biso   1.000  H
  O139     1.0000 0.53875  0.91385  0.24274  Biso   1.000  O
  C513     1.0000 0.46134  0.95115  0.26274  Biso   1.000  C
  H639     1.0000 0.52718  0.97614  0.26344  Biso   1.000  H
  C514     1.0000 0.51737  0.00694  0.32733  Biso   1.000  C
  H640     1.0000 0.25816  0.76223  0.42003  Biso   1.000  H
  O140     1.0000 0.22318  0.77913  0.29543  Biso   1.000  O
  C515     1.0000 0.28277  0.85354  0.29604  Biso   1.000  C
  C516     1.0000 0.34542  0.93310  0.29175  Biso   1.000  C
  H641     1.0000 0.33687  0.95865  0.51334  Biso   1.000  H
  H642     1.0000 0.32616  0.93283  0.56885  Biso   1.000  H
  H643     1.0000 0.29087  0.94184  0.54144  Biso   1.000  H
  H644     1.0000 0.24547  0.83023  0.52143  Biso   1.000  H
  H645     1.0000 0.23536  0.86684  0.54164  Biso   1.000  H
  H646     1.0000 0.26828  0.85743  0.57445  Biso   1.000  H
  H647     1.0000 0.52367  0.92075  0.22404  Biso   1.000  H
  C517     1.0000 0.45557  0.93653  0.20895  Biso   1.000  C
  C518     1.0000 0.42508  0.94930  0.28815  Biso   1.000  C
  H648     1.0000 0.49947  0.99773  0.36022  Biso   1.000  H
  H649     1.0000 0.51057  0.02675  0.30741  Biso   1.000  H
  C519     1.0000 0.56588  0.03193  0.34353  Biso   1.000  C
  H650     1.0000 0.21138  0.75764  0.31572  Biso   1.000  H
  O141     1.0000 0.27055  0.85677  0.24274  Biso   1.000  O
  C520     1.0000 0.38436  0.93488  0.26242  Biso   1.000  C
  H651     1.0000 0.32615  0.93372  0.26315  Biso   1.000  H
  C521     1.0000 0.35706  0.97284  0.32893  Biso   1.000  C
  O142     1.0000 0.49003  0.93666  0.17933  Biso   1.000  O
  C522     1.0000 0.41626  0.92224  0.18212  Biso   1.000  C
  H652     1.0000 0.42798  0.95825  0.32443  Biso   1.000  H
  H653     1.0000 0.57701  0.01354  0.35912  Biso   1.000  H
  C523     1.0000 0.56787  0.06735  0.38223  Biso   1.000  C
  C524     1.0000 0.59050  0.05785  0.29211  Biso   1.000  C
  H654     1.0000 0.29277  0.87183  0.22433  Biso   1.000  H
  C525     1.0000 0.38138  0.92154  0.20862  Biso   1.000  C
  H655     1.0000 0.37255  0.97112  0.36092  Biso   1.000  H
  H656     1.0000 0.37697  0.99975  0.30942  Biso   1.000  H
  C526     1.0000 0.31638  0.97525  0.34742  Biso   1.000  C
  H657     1.0000 0.50415  0.92963  0.19962  Biso   1.000  H
  O143     1.0000 0.41257  0.90913  0.12763  Biso   1.000  O
  H658     1.0000 0.55318  0.05375  0.41594  Biso   1.000  H
  H659     1.0000 0.55341  0.08155  0.36554  Biso   1.000  H
  H660     1.0000 0.59809  0.08874  0.38963  Biso   1.000  H
  H661     1.0000 0.58709  0.03764  0.26352  Biso   1.000  H
  H662     1.0000 0.62130  0.07633  0.30042  Biso   1.000  H
  H663     1.0000 0.57848  0.07594  0.28041  Biso   1.000  H
  O144     1.0000 0.34225  0.90606  0.17872  Biso   1.000  O
  H664     1.0000 0.29355  0.94584  0.35932  Biso   1.000  H
  C527     1.0000 0.29868  0.98964  0.29964  Biso   1.000  C
  C528     1.0000 0.32861  0.00714  0.39565  Biso   1.000  C
  H665     1.0000 0.38757  0.90144  0.11642  Biso   1.000  H
  H666     1.0000 0.32108  0.89134  0.19872  Biso   1.000  H
  H667     1.0000 0.27317  0.99113  0.31122  Biso   1.000  H
  H668     1.0000 0.29057  0.96875  0.27035  Biso   1.000  H
  H669     1.0000 0.32109  0.01823  0.28712  Biso   1.000  H
  H670     1.0000 0.33927  0.99714  0.42535  Biso   1.000  H
  H671     1.0000 0.30280  0.00813  0.40722  Biso   1.000  H
  H672     1.0000 0.35106  0.03603  0.38452  Biso   1.000  H
  C529     1.0000 0.41302  0.30922  0.19001  Biso   1.000  C
  C530     1.0000 0.38960  0.26191  0.16821  Biso   1.000  C
  H673     1.0000 0.39240  0.31971  0.19181  Biso   1.000  H
  H674     1.0000 0.43681  0.32780  0.16600  Biso   1.000  H
  H675     1.0000 0.42441  0.30981  0.22589  Biso   1.000  H
  C531     1.0000 0.35031  0.23200  0.20429  Biso   1.000  C
  C532     1.0000 0.42149  0.24399  0.16461  Biso   1.000  C
  H676     1.0000 0.37861  0.26201  0.13131  Biso   1.000  H
  H677     1.0000 0.33050  0.24349  0.20629  Biso   1.000  H
  H678     1.0000 0.36060  0.23091  0.24041  Biso   1.000  H
  H679     1.0000 0.33519  0.20279  0.18899  Biso   1.000  H
  C533     1.0000 0.46186  0.27030  0.12828  Biso   1.000  C
  H680     1.0000 0.43171  0.24300  0.20130  Biso   1.000  H
  H681     1.0000 0.40542  0.21391  0.15111  Biso   1.000  H
  C534     1.0000 0.45020  0.27535  0.07011  Biso   1.000  C
  C535     1.0000 0.49477  0.25402  0.12971  Biso   1.000  C
  H682     1.0000 0.47741  0.30020  0.14358  Biso   1.000  H
  C536     1.0000 0.47290  0.31503  0.04299  Biso   1.000  C
  C537     1.0000 0.41661  0.24029  0.04132  Biso   1.000  C
  C538     1.0000 0.53939  0.28334  0.13151  Biso   1.000  C
  C539     1.0000 0.48189  0.20962  0.12931  Biso   1.000  C
  O145     1.0000 0.50763  0.35263  0.06762  Biso   1.000  O
  C540     1.0000 0.46221  0.31995  0.98990  Biso   1.000  C
  H683     1.0000 0.40131  0.21289  0.05850  Biso   1.000  H
  C541     1.0000 0.40466  0.24402  0.98789  Biso   1.000  C
  O146     1.0000 0.55602  0.32899  0.13229  Biso   1.000  O
  C542     1.0000 0.56962  0.26871  0.13291  Biso   1.000  C
  C543     1.0000 0.51081  0.19302  0.13049  Biso   1.000  C
  H684     1.0000 0.45179  0.18939  0.12812  Biso   1.000  H
  H685     1.0000 0.52209  0.34530  0.08680  Biso   1.000  H
  O147     1.0000 0.48560  0.36055  0.96261  Biso   1.000  O
  C544     1.0000 0.42881  0.28419  0.96290  Biso   1.000  C
  C545     1.0000 0.36701  0.20497  0.95881  Biso   1.000  C
  H686     1.0000 0.54069  0.33500  0.11270  Biso   1.000  H
  O148     1.0000 0.61478  0.29981  0.13450  Biso   1.000  O
  C546     1.0000 0.55536  0.22431  0.13188  Biso   1.000  C
  C547     1.0000 0.49499  0.14439  0.12820  Biso   1.000  C
  H687     1.0000 0.50471  0.37871  0.98290  Biso   1.000  H
  O149     1.0000 0.41948  0.29156  0.90939  Biso   1.000  O
  C548     1.0000 0.38221  0.17687  0.92940  Biso   1.000  C
  H688     1.0000 0.35720  0.21771  0.93009  Biso   1.000  H
  C549     1.0000 0.32641  0.17711  0.99399  Biso   1.000  C
  H689     1.0000 0.62910  0.28710  0.13511  Biso   1.000  H
  O150     1.0000 0.58742  0.21134  0.13221  Biso   1.000  O
  C550     1.0000 0.48979  0.12729  0.06958  Biso   1.000  C
  H690     1.0000 0.51869  0.14089  0.14440  Biso   1.000  H
  C551     1.0000 0.45411  0.11620  0.16301  Biso   1.000  C
  H691     1.0000 0.41260  0.26960  0.89070  Biso   1.000  H
  C552     1.0000 0.39680  0.18569  0.87560  Biso   1.000  C
  C553     1.0000 0.38404  0.14244  0.95480  Biso   1.000  C
  H692     1.0000 0.33560  0.16839  0.02692  Biso   1.000  H
  C554     1.0000 0.30140  0.20061  0.01019  Biso   1.000  C
  H693     1.0000 0.30659  0.15050  0.97411  Biso   1.000  H
  H694     1.0000 0.57940  0.18981  0.11229  Biso   1.000  H
  C555     1.0000 0.52428  0.12670  0.04242  Biso   1.000  C
  C556     1.0000 0.45101  0.11240  0.04070  Biso   1.000  C
  H695     1.0000 0.45920  0.12970  0.19881  Biso   1.000  H
  H696     1.0000 0.42959  0.11759  0.14669  Biso   1.000  H
  C557     1.0000 0.44041  0.06959  0.17078  Biso   1.000  C
  O151     1.0000 0.39668  0.22005  0.84599  Biso   1.000  O
  C558     1.0000 0.41109  0.16070  0.84881  Biso   1.000  C
  H697     1.0000 0.37510  0.13640  0.99108  Biso   1.000  H
  C559     1.0000 0.39849  0.11617  0.92911  Biso   1.000  C
  H698     1.0000 0.31980  0.23009  0.02581  Biso   1.000  H
  C560     1.0000 0.26600  0.16720  0.04888  Biso   1.000  C
  C561     1.0000 0.27549  0.19929  0.95881  Biso   1.000  C
  O152     1.0000 0.56505  0.14116  0.06750  Biso   1.000  O
  C562     1.0000 0.51941  0.11141  0.98949  Biso   1.000  C
  H699     1.0000 0.42779  0.11320  0.05809  Biso   1.000  H
  C563     1.0000 0.44416  0.09613  0.98748  Biso   1.000  C
  H700     1.0000 0.43738  0.05559  0.13511  Biso   1.000  H
  C564     1.0000 0.39801  0.04539  0.20130  Biso   1.000  C
  C565     1.0000 0.47471  0.06569  0.20531  Biso   1.000  C
  H701     1.0000 0.40372  0.24121  0.86632  Biso   1.000  H
  O153     1.0000 0.42420  0.17011  0.79428  Biso   1.000  O
  C566     1.0000 0.41180  0.12650  0.87532  Biso   1.000  C
  C567     1.0000 0.40026  0.07900  0.95840  Biso   1.000  C
  H702     1.0000 0.27960  0.16611  0.08259  Biso   1.000  H
  H703     1.0000 0.25180  0.13852  0.03219  Biso   1.000  H
  H704     1.0000 0.24462  0.17602  0.05629  Biso   1.000  H
  H705     1.0000 0.29570  0.21609  0.93021  Biso   1.000  H
  H706     1.0000 0.25701  0.21160  0.96711  Biso   1.000  H
  H707     1.0000 0.25740  0.16922  0.94711  Biso   1.000  H
  H708     1.0000 0.57111  0.16261  0.08668  Biso   1.000  H
  O154     1.0000 0.55419  0.11069  0.96212  Biso   1.000  O
  C568     1.0000 0.47981  0.09590  0.96269  Biso   1.000  C
  H709     1.0000 0.37469  0.04490  0.17999  Biso   1.000  H
  H710     1.0000 0.40052  0.06001  0.23550  Biso   1.000  H
  H711     1.0000 0.39152  0.01571  0.20809  Biso   1.000  H
  H712     1.0000 0.50311  0.08190  0.18809  Biso   1.000  H
  H713     1.0000 0.46649  0.03519  0.20830  Biso   1.000  H
  H714     1.0000 0.47590  0.07751  0.24110  Biso   1.000  H
  H715     1.0000 0.43190  0.15281  0.78311  Biso   1.000  H
  O155     1.0000 0.42729  0.10286  0.84541  Biso   1.000  O
  H716     1.0000 0.39960  0.05909  0.92980  Biso   1.000  H
  C569     1.0000 0.36051  0.05090  0.99558  Biso   1.000  C
  H717     1.0000 0.57571  0.12039  0.98241  Biso   1.000  H
  O156     1.0000 0.47654  0.08045  0.90939  Biso   1.000  O
  H718     1.0000 0.44200  0.09639  0.86542  Biso   1.000  H
  H719     1.0000 0.36219  0.06810  0.02761  Biso   1.000  H
  C570     1.0000 0.35811  0.00779  0.01411  Biso   1.000  C
  H720     1.0000 0.33360  0.04390  0.97611  Biso   1.000  H
  H721     1.0000 0.46151  0.08761  0.89098  Biso   1.000  H
  H722     1.0000 0.38751  0.01439  0.02602  Biso   1.000  H
  C571     1.0000 0.34369  0.97570  0.96629  Biso   1.000  C
  C572     1.0000 0.32617  0.98812  0.06230  Biso   1.000  C
  H723     1.0000 0.34220  0.94870  0.97791  Biso   1.000  H
  H724     1.0000 0.36459  0.98851  0.93700  Biso   1.000  H
  H725     1.0000 0.31509  0.96950  0.95382  Biso   1.000  H
  H726     1.0000 0.33621  0.00881  0.09200  Biso   1.000  H
  H727     1.0000 0.32520  0.96131  0.07392  Biso   1.000  H
  H728     1.0000 0.29730  0.98171  0.05121  Biso   1.000  H
  O157     1.0000 0.56039  0.22269  0.53436  Biso   1.000  O
  C573     1.0000 0.58941  0.20606  0.53518  Biso   1.000  C
  H729     1.0000 0.53904  0.20738  0.55396  Biso   1.000  H
  C574     1.0000 0.57407  0.16143  0.53698  Biso   1.000  C
  C575     1.0000 0.63426  0.23629  0.53375  Biso   1.000  C
  C576     1.0000 0.52488  0.12851  0.53837  Biso   1.000  C
  C577     1.0000 0.60564  0.14858  0.53735  Biso   1.000  C
  O158     1.0000 0.64832  0.28145  0.53215  Biso   1.000  O
  C578     1.0000 0.66441  0.22203  0.53477  Biso   1.000  C
  C579     1.0000 0.51085  0.08817  0.50205  Biso   1.000  C
  C580     1.0000 0.50819  0.11686  0.59658  Biso   1.000  C
  H730     1.0000 0.51052  0.14406  0.52307  Biso   1.000  H
  C581     1.0000 0.65113  0.17747  0.53616  Biso   1.000  C
  H731     1.0000 0.59573  0.11848  0.53857  Biso   1.000  H
  H732     1.0000 0.67535  0.29578  0.53158  Biso   1.000  H
  O159     1.0000 0.70938  0.25405  0.53448  Biso   1.000  O
  C582     1.0000 0.46101  0.05625  0.49845  Biso   1.000  C
  H733     1.0000 0.52204  0.09837  0.46535  Biso   1.000  H
  H734     1.0000 0.52484  0.07206  0.51554  Biso   1.000  H
  C583     1.0000 0.49124  0.13957  0.62366  Biso   1.000  C
  C584     1.0000 0.50962  0.08325  0.62538  Biso   1.000  C
  C585     1.0000 0.68393  0.16166  0.53845  Biso   1.000  C
  H735     1.0000 0.72294  0.24607  0.55436  Biso   1.000  H
  C586     1.0000 0.43712  0.07966  0.47668  Biso   1.000  C
  H736     1.0000 0.44994  0.04526  0.53538  Biso   1.000  H
  C587     1.0000 0.45164  0.01697  0.46237  Biso   1.000  C
  O160     1.0000 0.48836  0.17430  0.59908  Biso   1.000  O
  C588     1.0000 0.47560  0.12888  0.67676  Biso   1.000  C
  H737     1.0000 0.52173  0.06797  0.60816  Biso   1.000  H
  C589     1.0000 0.49400  0.07134  0.67876  Biso   1.000  C
  C590     1.0000 0.69584  0.15647  0.59707  Biso   1.000  C
  H738     1.0000 0.71114  0.18536  0.52225  Biso   1.000  H
  C591     1.0000 0.67123  0.12076  0.50368  Biso   1.000  C
  H739     1.0000 0.40604  0.05906  0.47488  Biso   1.000  H
  H740     1.0000 0.44233  0.10346  0.50065  Biso   1.000  H
  H741     1.0000 0.44795  0.09108  0.44077  Biso   1.000  H
  H742     1.0000 0.46305  0.02727  0.42625  Biso   1.000  H
  H743     1.0000 0.46573  0.00188  0.47767  Biso   1.000  H
  H744     1.0000 0.42032  0.99716  0.46036  Biso   1.000  H
  H745     1.0000 0.51014  0.18876  0.57985  Biso   1.000  H
  O161     1.0000 0.45837  0.15228  0.70408  Biso   1.000  O
  C592     1.0000 0.47794  0.09547  0.70376  Biso   1.000  C
  C593     1.0000 0.49538  0.03367  0.70785  Biso   1.000  C
  C594     1.0000 0.73091  0.19094  0.62427  Biso   1.000  C
  C595     1.0000 0.67194  0.11765  0.62595  Biso   1.000  C
  H746     1.0000 0.66284  0.12587  0.46785  Biso   1.000  H
  H747     1.0000 0.64535  0.09626  0.51996  Biso   1.000  H
  C596     1.0000 0.70412  0.10706  0.49587  Biso   1.000  C
  H748     1.0000 0.45933  0.17136  0.68375  Biso   1.000  H
  O162     1.0000 0.46127  0.08616  0.75726  Biso   1.000  O
  C597     1.0000 0.53868  0.04886  0.73726  Biso   1.000  C
  H749     1.0000 0.47284  0.02387  0.73656  Biso   1.000  H
  C598     1.0000 0.48263  0.99307  0.67267  Biso   1.000  C
  O163     1.0000 0.75721  0.23171  0.59916  Biso   1.000  O
  C599     1.0000 0.74133  0.18605  0.67717  Biso   1.000  C
  C600     1.0000 0.68136  0.11082  0.67917  Biso   1.000  C
  H750     1.0000 0.64794  0.09448  0.60857  Biso   1.000  H
  H751     1.0000 0.71514  0.10405  0.53158  Biso   1.000  H
  C601     1.0000 0.68593  0.06467  0.46535  Biso   1.000  C
  C602     1.0000 0.74234  0.14135  0.46138  Biso   1.000  C
  H752     1.0000 0.47632  0.07926  0.77596  Biso   1.000  H
  C603     1.0000 0.54445  0.06348  0.79105  Biso   1.000  C
  C604     1.0000 0.57494  0.05071  0.71185  Biso   1.000  C
  H753     1.0000 0.50055  0.00228  0.63978  Biso   1.000  H
  H754     1.0000 0.48942  0.97326  0.69255  Biso   1.000  H
  C605     1.0000 0.43411  0.96808  0.65647  Biso   1.000  C
  H755     1.0000 0.74184  0.23778  0.57997  Biso   1.000  H
  O164     1.0000 0.77682  0.22085  0.70457  Biso   1.000  O
  C606     1.0000 0.71725  0.14647  0.70396  Biso   1.000  C
  C607     1.0000 0.65457  0.06691  0.70825  Biso   1.000  C
  H756     1.0000 0.66312  0.04136  0.48666  Biso   1.000  H
  H757     1.0000 0.67383  0.06718  0.43115  Biso   1.000  H
  H758     1.0000 0.70915  0.05817  0.45856  Biso   1.000  H
  H759     1.0000 0.75455  0.16978  0.47857  Biso   1.000  H
  H760     1.0000 0.76463  0.13317  0.45836  Biso   1.000  H
  H761     1.0000 0.73174  0.14258  0.42555  Biso   1.000  H
  O165     1.0000 0.50996  0.06335  0.82067  Biso   1.000  O
  C608     1.0000 0.58373  0.07777  0.81784  Biso   1.000  C
  H762     1.0000 0.57204  0.04176  0.67557  Biso   1.000  H
  C609     1.0000 0.61566  0.06513  0.73754  Biso   1.000  C
  H763     1.0000 0.42303  0.98647  0.64088  Biso   1.000  H
  C610     1.0000 0.43212  0.93266  0.61777  Biso   1.000  C
  C611     1.0000 0.40952  0.94216  0.70785  Biso   1.000  C
  H764     1.0000 0.78864  0.24237  0.68428  Biso   1.000  H
  O166     1.0000 0.72942  0.14320  0.75726  Biso   1.000  O
  H765     1.0000 0.67383  0.06625  0.73685  Biso   1.000  H
  C612     1.0000 0.64293  0.02717  0.67107  Biso   1.000  C
  H766     1.0000 0.49584  0.07038  0.80038  Biso   1.000  H
  O167     1.0000 0.58745  0.09088  0.87237  Biso   1.000  O
  C613     1.0000 0.61864  0.07847  0.79138  Biso   1.000  C
  H767     1.0000 0.44684  0.94626  0.58406  Biso   1.000  H
  H768     1.0000 0.44664  0.91846  0.63446  Biso   1.000  H
  H769     1.0000 0.40193  0.91127  0.61037  Biso   1.000  H
  H770     1.0000 0.41290  0.96237  0.73648  Biso   1.000  H
  H771     1.0000 0.37872  0.92368  0.69958  Biso   1.000  H
  H772     1.0000 0.42154  0.92407  0.71955  Biso   1.000  H
  H773     1.0000 0.70725  0.12818  0.77567  Biso   1.000  H
  H774     1.0000 0.62742  0.02885  0.63908  Biso   1.000  H
  H775     1.0000 0.62305  0.00026  0.69058  Biso   1.000  H
  C614     1.0000 0.68364  0.02476  0.65258  Biso   1.000  C
  H776     1.0000 0.61245  0.09857  0.88358  Biso   1.000  H
  O168     1.0000 0.65777  0.09395  0.82128  Biso   1.000  O
  H777     1.0000 0.70644  0.05417  0.64068  Biso   1.000  H
  C615     1.0000 0.70134  0.01037  0.70036  Biso   1.000  C
  C616     1.0000 0.67141  0.99287  0.60435  Biso   1.000  C
  H778     1.0000 0.67894  0.10867  0.80128  Biso   1.000  H
  H779     1.0000 0.72684  0.00888  0.68878  Biso   1.000  H
  H780     1.0000 0.70945  0.03126  0.72965  Biso   1.000  H
  H781     1.0000 0.67893  0.98178  0.71288  Biso   1.000  H
  H782     1.0000 0.66075  0.00287  0.57465  Biso   1.000  H
  H783     1.0000 0.69722  0.99188  0.59278  Biso   1.000  H
  H784     1.0000 0.64889  0.96395  0.61548  Biso   1.000  H
  O169     1.0000 0.29980  0.68502  0.86550  Biso   1.000  O
  C617     1.0000 0.26869  0.69908  0.86709  Biso   1.000  C
  H785     1.0000 0.28710  0.65801  0.86489  Biso   1.000  H
  C618     1.0000 0.22429  0.66894  0.86808  Biso   1.000  C
  C619     1.0000 0.28335  0.74394  0.86849  Biso   1.000  C
  O170     1.0000 0.21134  0.62395  0.86779  Biso   1.000  O
  C620     1.0000 0.19299  0.68221  0.86951  Biso   1.000  C
  O171     1.0000 0.32899  0.77296  0.86771  Biso   1.000  O
  C621     1.0000 0.25401  0.75926  0.87029  Biso   1.000  C
  H786     1.0000 0.18979  0.61041  0.88771  Biso   1.000  H
  C622     1.0000 0.20961  0.72770  0.87069  Biso   1.000  C
  C623     1.0000 0.14439  0.64940  0.87180  Biso   1.000  C
  H787     1.0000 0.33501  0.79432  0.88730  Biso   1.000  H
  C624     1.0000 0.27031  0.80845  0.87168  Biso   1.000  C
  H788     1.0000 0.18941  0.73760  0.87188  Biso   1.000  H
  C625     1.0000 0.12730  0.63751  0.93038  Biso   1.000  C
  H789     1.0000 0.14091  0.62220  0.85560  Biso   1.000  H
  C626     1.0000 0.11621  0.66211  0.83699  Biso   1.000  C
  C627     1.0000 0.27535  0.82515  0.92989  Biso   1.000  C
  H790     1.0000 0.30019  0.82281  0.85638  Biso   1.000  H
  C628     1.0000 0.24401  0.82251  0.83539  Biso   1.000  C
  C629     1.0000 0.12671  0.60242  0.95758  Biso   1.000  C
  C630     1.0000 0.11239  0.66138  0.95930  Biso   1.000  C
  H791     1.0000 0.12969  0.67049  0.80119  Biso   1.000  H
  H792     1.0000 0.11760  0.68799  0.85331  Biso   1.000  H
  C631     1.0000 0.06959  0.62919  0.82922  Biso   1.000  C
  C632     1.0000 0.31502  0.84212  0.95701  Biso   1.000  C
  C633     1.0000 0.24029  0.82370  0.95868  Biso   1.000  C
  H793     1.0000 0.24302  0.81132  0.79870  Biso   1.000  H
  H794     1.0000 0.21391  0.80851  0.84889  Biso   1.000  H
  C634     1.0000 0.26190  0.87229  0.83179  Biso   1.000  C
  O172     1.0000 0.14114  0.57611  0.93250  Biso   1.000  O
  C635     1.0000 0.11140  0.59199  0.01051  Biso   1.000  C
  H795     1.0000 0.11320  0.68541  0.94191  Biso   1.000  H
  C636     1.0000 0.09613  0.65197  0.01248  Biso   1.000  C
  H796     1.0000 0.05561  0.61820  0.86489  Biso   1.000  H
  C637     1.0000 0.04540  0.64742  0.79870  Biso   1.000  C
  C638     1.0000 0.06571  0.59100  0.79469  Biso   1.000  C
  O173     1.0000 0.35260  0.84499  0.93238  Biso   1.000  O
  C639     1.0000 0.31994  0.85773  0.01010  Biso   1.000  C
  H797     1.0000 0.21292  0.81161  0.94150  Biso   1.000  H
  C640     1.0000 0.24402  0.83934  0.01211  Biso   1.000  C
  H798     1.0000 0.26200  0.88341  0.86869  Biso   1.000  H
  C641     1.0000 0.23201  0.88170  0.79571  Biso   1.000  C
  C642     1.0000 0.30918  0.89619  0.80999  Biso   1.000  C
  H799     1.0000 0.16261  0.59150  0.91328  Biso   1.000  H
  O174     1.0000 0.11069  0.55650  0.03788  Biso   1.000  O
  C643     1.0000 0.09589  0.61609  0.03731  Biso   1.000  C
  C644     1.0000 0.07900  0.67878  0.04160  Biso   1.000  C
  H800     1.0000 0.04489  0.67019  0.82001  Biso   1.000  H
  H801     1.0000 0.05999  0.65950  0.76450  Biso   1.000  H
  H802     1.0000 0.01570  0.62421  0.79191  Biso   1.000  H
  H803     1.0000 0.08191  0.57882  0.81191  Biso   1.000  H
  H804     1.0000 0.03521  0.56872  0.79170  Biso   1.000  H
  H805     1.0000 0.07749  0.60160  0.75890  Biso   1.000  H
  H806     1.0000 0.34530  0.82320  0.91320  Biso   1.000  H
  O175     1.0000 0.36055  0.87496  0.03739  Biso   1.000  O
  C645     1.0000 0.28420  0.85542  0.03710  Biso   1.000  C
  C646     1.0000 0.20496  0.83796  0.04119  Biso   1.000  C
  H807     1.0000 0.24348  0.91299  0.79371  Biso   1.000  H
  H808     1.0000 0.23089  0.87031  0.75959  Biso   1.000  H
  H809     1.0000 0.20281  0.86760  0.81101  Biso   1.000  H
  H810     1.0000 0.31972  0.92732  0.80819  Biso   1.000  H
  H811     1.0000 0.32780  0.89101  0.83400  Biso   1.000  H
  H812     1.0000 0.30979  0.88539  0.77411  Biso   1.000  H
  H813     1.0000 0.12041  0.54472  0.01759  Biso   1.000  H
  O176     1.0000 0.08045  0.60391  0.09061  Biso   1.000  O
  C647     1.0000 0.11616  0.71770  0.07089  Biso   1.000  C
  H814     1.0000 0.05910  0.65950  0.07020  Biso   1.000  H
  C648     1.0000 0.05091  0.69040  0.00438  Biso   1.000  C
  H815     1.0000 0.37871  0.87401  0.01710  Biso   1.000  H
  O177     1.0000 0.29156  0.87209  0.09061  Biso   1.000  O
  C649     1.0000 0.17686  0.79468  0.07060  Biso   1.000  C
  H816     1.0000 0.21770  0.86050  0.06991  Biso   1.000  H
  C650     1.0000 0.17709  0.85070  0.00601  Biso   1.000  C
  H817     1.0000 0.08760  0.62609  0.10902  Biso   1.000  H
  C651     1.0000 0.12649  0.71469  0.12468  Biso   1.000  C
  C652     1.0000 0.14243  0.75840  0.04520  Biso   1.000  C
  H818     1.0000 0.06810  0.70591  0.97239  Biso   1.000  H
  C653     1.0000 0.00780  0.64969  0.98589  Biso   1.000  C
  H819     1.0000 0.04391  0.71030  0.02389  Biso   1.000  H
  H820     1.0000 0.26961  0.85701  0.10930  Biso   1.000  H
  C654     1.0000 0.18570  0.78890  0.12440  Biso   1.000  C
  H821     1.0000 0.16840  0.83281  0.97308  Biso   1.000  H
  C655     1.0000 0.20059  0.89919  0.98981  Biso   1.000  C
  H822     1.0000 0.15050  0.84390  0.02589  Biso   1.000  H
  O178     1.0000 0.10285  0.67558  0.15459  Biso   1.000  O
  C656     1.0000 0.16071  0.74962  0.15119  Biso   1.000  C
  H823     1.0000 0.13639  0.76131  0.00888  Biso   1.000  H
  H824     1.0000 0.01439  0.62692  0.97398  Biso   1.000  H
  C657     1.0000 0.98809  0.66191  0.93770  Biso   1.000  C
  C658     1.0000 0.97571  0.63200  0.03371  Biso   1.000  C
  O179     1.0000 0.22005  0.82337  0.15401  Biso   1.000  O
  H825     1.0000 0.23011  0.91032  0.97419  Biso   1.000  H
  C659     1.0000 0.16720  0.90121  0.95108  Biso   1.000  C
  C660     1.0000 0.19930  0.92382  0.04119  Biso   1.000  C
  H826     1.0000 0.09641  0.65442  0.13458  Biso   1.000  H
  O180     1.0000 0.17008  0.74589  0.20568  Biso   1.000  O
  H827     1.0000 0.00879  0.67260  0.90800  Biso   1.000  H
  H828     1.0000 0.96129  0.63609  0.92608  Biso   1.000  H
  H829     1.0000 0.98169  0.68439  0.94879  Biso   1.000  H
  H830     1.0000 0.94870  0.60652  0.02209  Biso   1.000  H
  H831     1.0000 0.98851  0.62391  0.06300  Biso   1.000  H
  H832     1.0000 0.96951  0.65442  0.04618  Biso   1.000  H
  H833     1.0000 0.24118  0.83750  0.13368  Biso   1.000  H
  H834     1.0000 0.16612  0.88652  0.91741  Biso   1.000  H
  H835     1.0000 0.13852  0.88672  0.96781  Biso   1.000  H
  H836     1.0000 0.17602  0.93141  0.94371  Biso   1.000  H
  H837     1.0000 0.21612  0.92042  0.06979  Biso   1.000  H
  H838     1.0000 0.21161  0.95462  0.03289  Biso   1.000  H
  H839     1.0000 0.16919  0.91180  0.05289  Biso   1.000  H
  H840     1.0000 0.15281  0.72090  0.21689  Biso   1.000  H
  O181     1.0000 0.70019  0.31499  0.13450  Biso   1.000  O
  H841     1.0000 0.71289  0.34200  0.13511  Biso   1.000  H
  C661     1.0000 0.73130  0.30093  0.13291  Biso   1.000  C
  C662     1.0000 0.71667  0.25607  0.13151  Biso   1.000  C
  C663     1.0000 0.77570  0.33107  0.13188  Biso   1.000  C
  O182     1.0000 0.67103  0.22705  0.13229  Biso   1.000  O
  C664     1.0000 0.74598  0.24075  0.12971  Biso   1.000  C
  O183     1.0000 0.78868  0.37606  0.13221  Biso   1.000  O
  C665     1.0000 0.80700  0.31780  0.13049  Biso   1.000  C
  H842     1.0000 0.66501  0.20569  0.11270  Biso   1.000  H
  C666     1.0000 0.79039  0.27228  0.12931  Biso   1.000  C
  C667     1.0000 0.72971  0.19156  0.12828  Biso   1.000  C
  H843     1.0000 0.81020  0.38960  0.11229  Biso   1.000  H
  C668     1.0000 0.85560  0.35061  0.12820  Biso   1.000  C
  H844     1.0000 0.81061  0.26241  0.12812  Biso   1.000  H
  C669     1.0000 0.72462  0.17483  0.07011  Biso   1.000  C
  H845     1.0000 0.69980  0.17720  0.14358  Biso   1.000  H
  C670     1.0000 0.75601  0.17750  0.16461  Biso   1.000  C
  C671     1.0000 0.87269  0.36250  0.06958  Biso   1.000  C
  H846     1.0000 0.85911  0.37781  0.14440  Biso   1.000  H
  C672     1.0000 0.88381  0.33790  0.16301  Biso   1.000  C
  C673     1.0000 0.68500  0.15789  0.04299  Biso   1.000  C
  C674     1.0000 0.75970  0.17631  0.04132  Biso   1.000  C
  H847     1.0000 0.75700  0.18869  0.20130  Biso   1.000  H
  H848     1.0000 0.78611  0.19150  0.15111  Biso   1.000  H
  C675     1.0000 0.73811  0.12769  0.16821  Biso   1.000  C
  C676     1.0000 0.87331  0.39759  0.04242  Biso   1.000  C
  C677     1.0000 0.88761  0.33860  0.04070  Biso   1.000  C
  H849     1.0000 0.87033  0.32952  0.19881  Biso   1.000  H
  H850     1.0000 0.88240  0.31199  0.14669  Biso   1.000  H
  C678     1.0000 0.93043  0.37082  0.17078  Biso   1.000  C
  O184     1.0000 0.64740  0.15502  0.06762  Biso   1.000  O
  C679     1.0000 0.68006  0.14225  0.98990  Biso   1.000  C
  H851     1.0000 0.78710  0.18840  0.05850  Biso   1.000  H
  C680     1.0000 0.75600  0.16067  0.98789  Biso   1.000  C
  H852     1.0000 0.73799  0.11660  0.13131  Biso   1.000  H
  C681     1.0000 0.76801  0.11831  0.20429  Biso   1.000  C
  C682     1.0000 0.69079  0.10379  0.19001  Biso   1.000  C
  O185     1.0000 0.85885  0.42390  0.06750  Biso   1.000  O
  C683     1.0000 0.88860  0.40799  0.98949  Biso   1.000  C
  H853     1.0000 0.88679  0.31460  0.05809  Biso   1.000  H
  C684     1.0000 0.90389  0.34804  0.98748  Biso   1.000  C
  H854     1.0000 0.94441  0.38181  0.13511  Biso   1.000  H
  C685     1.0000 0.95459  0.35259  0.20130  Biso   1.000  C
  C686     1.0000 0.93431  0.40901  0.20531  Biso   1.000  C
  H855     1.0000 0.65472  0.17681  0.08680  Biso   1.000  H
  O186     1.0000 0.63944  0.12505  0.96261  Biso   1.000  O
  C687     1.0000 0.71580  0.14459  0.96290  Biso   1.000  C
  C688     1.0000 0.79505  0.16205  0.95881  Biso   1.000  C
  H856     1.0000 0.75649  0.08698  0.20629  Biso   1.000  H
  H857     1.0000 0.76910  0.12970  0.24041  Biso   1.000  H
  H858     1.0000 0.79721  0.13241  0.18899  Biso   1.000  H
  H859     1.0000 0.68030  0.07269  0.19181  Biso   1.000  H
  H860     1.0000 0.67222  0.10900  0.16600  Biso   1.000  H
  H861     1.0000 0.69020  0.11462  0.22589  Biso   1.000  H
  H862     1.0000 0.83741  0.40851  0.08668  Biso   1.000  H
  O187     1.0000 0.88933  0.44351  0.96212  Biso   1.000  O
  C689     1.0000 0.90409  0.38389  0.96269  Biso   1.000  C
  C690     1.0000 0.92099  0.32123  0.95840  Biso   1.000  C
  H863     1.0000 0.95512  0.32982  0.17999  Biso   1.000  H
  H864     1.0000 0.94000  0.34051  0.23550  Biso   1.000  H
  H865     1.0000 0.98429  0.37580  0.20809  Biso   1.000  H
  H866     1.0000 0.91811  0.42119  0.18809  Biso   1.000  H
  H867     1.0000 0.96481  0.43129  0.20830  Biso   1.000  H
  H868     1.0000 0.92250  0.39841  0.24110  Biso   1.000  H
  H869     1.0000 0.62131  0.12600  0.98290  Biso   1.000  H
  O188     1.0000 0.70843  0.12792  0.90939  Biso   1.000  O
  C691     1.0000 0.82313  0.20533  0.92940  Biso   1.000  C
  H870     1.0000 0.78229  0.13951  0.93009  Biso   1.000  H
  C692     1.0000 0.82290  0.14931  0.99399  Biso   1.000  C
  H871     1.0000 0.87961  0.45529  0.98241  Biso   1.000  H
  O189     1.0000 0.91954  0.39610  0.90939  Biso   1.000  O
  C693     1.0000 0.88386  0.28231  0.92911  Biso   1.000  C
  H872     1.0000 0.94092  0.34051  0.92980  Biso   1.000  H
  C694     1.0000 0.94911  0.30961  0.99558  Biso   1.000  C
  H873     1.0000 0.73041  0.14300  0.89070  Biso   1.000  H
  C695     1.0000 0.81432  0.21111  0.87560  Biso   1.000  C
  C696     1.0000 0.85759  0.24161  0.95480  Biso   1.000  C
  H874     1.0000 0.83159  0.16720  0.02692  Biso   1.000  H
  C697     1.0000 0.79940  0.10082  0.01019  Biso   1.000  C
  H875     1.0000 0.84952  0.15611  0.97411  Biso   1.000  H
  H876     1.0000 0.91242  0.37392  0.89098  Biso   1.000  H
  C698     1.0000 0.87353  0.28532  0.87532  Biso   1.000  C
  H877     1.0000 0.93189  0.29410  0.02761  Biso   1.000  H
  C699     1.0000 0.99222  0.35032  0.01411  Biso   1.000  C
  H878     1.0000 0.95611  0.28971  0.97611  Biso   1.000  H
  O190     1.0000 0.77997  0.17664  0.84599  Biso   1.000  O
  C700     1.0000 0.83931  0.25039  0.84881  Biso   1.000  C
  H879     1.0000 0.86360  0.23870  0.99108  Biso   1.000  H
  H880     1.0000 0.76991  0.08969  0.02581  Biso   1.000  H
  C701     1.0000 0.83281  0.09880  0.04888  Biso   1.000  C
  C702     1.0000 0.80070  0.07619  0.95881  Biso   1.000  C
  O191     1.0000 0.89717  0.32443  0.84541  Biso   1.000  O
  H881     1.0000 0.98560  0.37309  0.02602  Biso   1.000  H
  C703     1.0000 0.02431  0.36801  0.96629  Biso   1.000  C
  C704     1.0000 0.01190  0.33810  0.06230  Biso   1.000  C
  H882     1.0000 0.75881  0.16251  0.86632  Biso   1.000  H
  O192     1.0000 0.82989  0.25409  0.79428  Biso   1.000  O
  H883     1.0000 0.83390  0.11349  0.08259  Biso   1.000  H
  H884     1.0000 0.86150  0.11329  0.03219  Biso   1.000  H
  H885     1.0000 0.82400  0.06860  0.05629  Biso   1.000  H
  H886     1.0000 0.78390  0.07959  0.93021  Biso   1.000  H
  H887     1.0000 0.78841  0.04539  0.96711  Biso   1.000  H
  H888     1.0000 0.83080  0.08821  0.94711  Biso   1.000  H
  H889     1.0000 0.90361  0.34559  0.86542  Biso   1.000  H
  H890     1.0000 0.05129  0.39349  0.97791  Biso   1.000  H
  H891     1.0000 0.01151  0.37610  0.93700  Biso   1.000  H
  H892     1.0000 0.03051  0.34559  0.95382  Biso   1.000  H
  H893     1.0000 0.99120  0.32741  0.09200  Biso   1.000  H
  H894     1.0000 0.03870  0.36392  0.07392  Biso   1.000  H
  H895     1.0000 0.01831  0.31559  0.05121  Biso   1.000  H
  H896     1.0000 0.84721  0.27911  0.78311  Biso   1.000  H
  C705     1.0000 0.13404  0.74289  0.62546  Biso   1.000  C
  C706     1.0000 0.13273  0.76748  0.67688  Biso   1.000  C
  H897     1.0000 0.11725  0.74629  0.59687  Biso   1.000  H
  H898     1.0000 0.12173  0.71209  0.63376  Biso   1.000  H
  H899     1.0000 0.16413  0.75487  0.61376  Biso   1.000  H
  C707     1.0000 0.15623  0.81597  0.66068  Biso   1.000  C
  H900     1.0000 0.10323  0.75639  0.69247  Biso   1.000  H
  C708     1.0000 0.16615  0.76546  0.71558  Biso   1.000  C
  C709     1.0000 0.12839  0.82871  0.62546  Biso   1.000  C
  H901     1.0000 0.16492  0.83386  0.69357  Biso   1.000  H
  H902     1.0000 0.18285  0.82277  0.64076  Biso   1.000  H
  H903     1.0000 0.16723  0.78015  0.74924  Biso   1.000  H
  H904     1.0000 0.19483  0.77996  0.69885  Biso   1.000  H
  H905     1.0000 0.15733  0.73526  0.72298  Biso   1.000  H
  C710     1.0000 0.15647  0.87203  0.59605  Biso   1.000  C
  C711     1.0000 0.08933  0.82733  0.65454  Biso   1.000  C
  H906     1.0000 0.11563  0.80617  0.59674  Biso   1.000  H
  C712     1.0000 0.14762  0.87777  0.54226  Biso   1.000  C
  C713     1.0000 0.19089  0.90827  0.62145  Biso   1.000  C
  C714     1.0000 0.04914  0.81128  0.62955  Biso   1.000  C
  C715     1.0000 0.09303  0.84298  0.70797  Biso   1.000  C
  O193     1.0000 0.11330  0.84331  0.51268  Biso   1.000  O
  C716     1.0000 0.17263  0.91709  0.51546  Biso   1.000  C
  H907     1.0000 0.19693  0.90537  0.65778  Biso   1.000  H
  C717     1.0000 0.21721  0.94901  0.59576  Biso   1.000  C
  O194     1.0000 0.04178  0.79461  0.57605  Biso   1.000  O
  C718     1.0000 0.01341  0.80894  0.65655  Biso   1.000  C
  C719     1.0000 0.05797  0.84152  0.73677  Biso   1.000  C
  H908     1.0000 0.12043  0.85506  0.72515  Biso   1.000  H
  H909     1.0000 0.09214  0.82918  0.53297  Biso   1.000  H
  O195     1.0000 0.16324  0.92078  0.46098  Biso   1.000  O
  C720     1.0000 0.20683  0.95198  0.54197  Biso   1.000  C
  C721     1.0000 0.25433  0.98793  0.62505  Biso   1.000  C
  H910     1.0000 0.06374  0.80967  0.55735  Biso   1.000  H
  C722     1.0000 0.01833  0.82456  0.70965  Biso   1.000  C
  O196     1.0000 0.97277  0.79171  0.62926  Biso   1.000  O
  C723     1.0000 0.06304  0.85823  0.79498  Biso   1.000  C
  H911     1.0000 0.18054  0.94577  0.44977  Biso   1.000  H
  O197     1.0000 0.23048  0.99110  0.51207  Biso   1.000  O
  C724     1.0000 0.28244  0.97627  0.66228  Biso   1.000  C
  C725     1.0000 0.23724  0.01470  0.65418  Biso   1.000  C
  H912     1.0000 0.27428  0.00717  0.59646  Biso   1.000  H
  O198     1.0000 0.98073  0.82168  0.73427  Biso   1.000  O
  H913     1.0000 0.95464  0.79267  0.64955  Biso   1.000  H
  C726     1.0000 0.07931  0.90741  0.79637  Biso   1.000  C
  H914     1.0000 0.03313  0.84387  0.81028  Biso   1.000  H
  C727     1.0000 0.08934  0.84416  0.83126  Biso   1.000  C
  H915     1.0000 0.23697  0.01226  0.53207  Biso   1.000  H
  H916     1.0000 0.26522  0.96076  0.69426  Biso   1.000  H
  H917     1.0000 0.28944  0.95637  0.64276  Biso   1.000  H
  C728     1.0000 0.32555  0.01698  0.68077  Biso   1.000  C
  C729     1.0000 0.23743  0.05058  0.62935  Biso   1.000  C
  C730     1.0000 0.22099  0.00529  0.70735  Biso   1.000  C
  H918     1.0000 0.98805  0.84347  0.75346  Biso   1.000  H
  C731     1.0000 0.05000  0.92273  0.79817  Biso   1.000  C
  C732     1.0000 0.12374  0.93897  0.79596  Biso   1.000  C
  H919     1.0000 0.09035  0.85539  0.86795  Biso   1.000  H
  H920     1.0000 0.11944  0.85816  0.81776  Biso   1.000  H
  C733     1.0000 0.07145  0.79438  0.83486  Biso   1.000  C
  H921     1.0000 0.31895  0.03979  0.69267  Biso   1.000  H
  C734     1.0000 0.34523  0.00476  0.72895  Biso   1.000  C
  C735     1.0000 0.35767  0.03467  0.63295  Biso   1.000  C
  O199     1.0000 0.25287  0.06276  0.57605  Biso   1.000  O
  C736     1.0000 0.22198  0.07468  0.65618  Biso   1.000  C
  H922     1.0000 0.22012  0.98126  0.72478  Biso   1.000  H
  C737     1.0000 0.20602  0.02916  0.73628  Biso   1.000  C
  O200     1.0000 0.00436  0.89371  0.79894  Biso   1.000  O
  C738     1.0000 0.06463  0.96759  0.79956  Biso   1.000  C
  C739     1.0000 0.14033  0.98446  0.79714  Biso   1.000  C
  H923     1.0000 0.14394  0.92907  0.79477  Biso   1.000  H
  H924     1.0000 0.07132  0.78326  0.79796  Biso   1.000  H
  C740     1.0000 0.10134  0.78497  0.87098  Biso   1.000  C
  C741     1.0000 0.02414  0.77048  0.85666  Biso   1.000  C
  H925     1.0000 0.35163  0.98228  0.71787  Biso   1.000  H
  H926     1.0000 0.32453  0.99407  0.75865  Biso   1.000  H
  H927     1.0000 0.37203  0.03058  0.74057  Biso   1.000  H
  H928     1.0000 0.38462  0.06016  0.64456  Biso   1.000  H
  H929     1.0000 0.34482  0.04276  0.60366  Biso   1.000  H
  H930     1.0000 0.36381  0.01226  0.62047  Biso   1.000  H
  H931     1.0000 0.24573  0.04058  0.55768  Biso   1.000  H
  O201     1.0000 0.22263  0.11017  0.62877  Biso   1.000  O
  C742     1.0000 0.20667  0.06425  0.70907  Biso   1.000  C
  C743     1.0000 0.18896  0.01727  0.79485  Biso   1.000  C
  H932     1.0000 0.99831  0.87236  0.77935  Biso   1.000  H
  O202     1.0000 0.03352  0.98166  0.80115  Biso   1.000  O
  C744     1.0000 0.10903  0.99773  0.79858  Biso   1.000  C
  H933     1.0000 0.08984  0.75368  0.87294  Biso   1.000  H
  H934     1.0000 0.10243  0.79636  0.90706  Biso   1.000  H
  H935     1.0000 0.13055  0.79907  0.85568  Biso   1.000  H
  H936     1.0000 0.01365  0.73939  0.85846  Biso   1.000  H
  H937     1.0000 0.00552  0.77567  0.83265  Biso   1.000  H
  H938     1.0000 0.02353  0.78128  0.89258  Biso   1.000  H
  H939     1.0000 0.21293  0.12199  0.64906  Biso   1.000  H
  O203     1.0000 0.19218  0.09056  0.73415  Biso   1.000  O
  H940     1.0000 0.19244  0.04448  0.81105  Biso   1.000  H
  C745     1.0000 0.21717  0.00457  0.82967  Biso   1.000  C
  H941     1.0000 0.04625  0.00866  0.80177  Biso   1.000  H
  O204     1.0000 0.12198  0.04273  0.79886  Biso   1.000  O
  H942     1.0000 0.17074  0.07518  0.75337  Biso   1.000  H
  H943     1.0000 0.20363  0.99618  0.86546  Biso   1.000  H
  H944     1.0000 0.21575  0.97868  0.81334  Biso   1.000  H
  C746     1.0000 0.26376  0.03748  0.83748  Biso   1.000  C
  H945     1.0000 0.14353  0.05626  0.77898  Biso   1.000  H
  H946     1.0000 0.27777  0.04847  0.80177  Biso   1.000  H
  C747     1.0000 0.28794  0.01929  0.86795  Biso   1.000  C
  C748     1.0000 0.26767  0.07567  0.87196  Biso   1.000  C
  H947     1.0000 0.28843  0.99648  0.84668  Biso   1.000  H
  H948     1.0000 0.27336  0.00717  0.90215  Biso   1.000  H
  H949     1.0000 0.31762  0.04246  0.87474  Biso   1.000  H
  H950     1.0000 0.25148  0.08789  0.85478  Biso   1.000  H
  H951     1.0000 0.29816  0.09799  0.87495  Biso   1.000  H
  H952     1.0000 0.25586  0.06507  0.90776  Biso   1.000  H
  C749     1.0000 0.86598  0.25712  0.37454  Biso   1.000  C
  C750     1.0000 0.86726  0.23253  0.32312  Biso   1.000  C
  H953     1.0000 0.88277  0.25372  0.40313  Biso   1.000  H
  H954     1.0000 0.87826  0.28792  0.36624  Biso   1.000  H
  H955     1.0000 0.83588  0.24514  0.38624  Biso   1.000  H
  C751     1.0000 0.83387  0.23454  0.28442  Biso   1.000  C
  C752     1.0000 0.84378  0.18404  0.33932  Biso   1.000  C
  H956     1.0000 0.89676  0.24362  0.30753  Biso   1.000  H
  H957     1.0000 0.83277  0.21982  0.25072  Biso   1.000  H
  H958     1.0000 0.80517  0.22002  0.30111  Biso   1.000  H
  H959     1.0000 0.84269  0.26475  0.27702  Biso   1.000  H
  C753     1.0000 0.87163  0.17130  0.37454  Biso   1.000  C
  H960     1.0000 0.83507  0.16615  0.30643  Biso   1.000  H
  H961     1.0000 0.81717  0.17724  0.35924  Biso   1.000  H
  C754     1.0000 0.84352  0.12798  0.40395  Biso   1.000  C
  C755     1.0000 0.91069  0.17268  0.34541  Biso   1.000  C
  H962     1.0000 0.88436  0.19384  0.40322  Biso   1.000  H
  C756     1.0000 0.85237  0.12224  0.45774  Biso   1.000  C
  C757     1.0000 0.80910  0.09174  0.37855  Biso   1.000  C
  C758     1.0000 0.95088  0.18873  0.37045  Biso   1.000  C
  C759     1.0000 0.90699  0.15703  0.29203  Biso   1.000  C
  O205     1.0000 0.88672  0.15670  0.48732  Biso   1.000  O
  C760     1.0000 0.82736  0.08292  0.48454  Biso   1.000  C
  H963     1.0000 0.80309  0.09464  0.34222  Biso   1.000  H
  C761     1.0000 0.78281  0.05100  0.40424  Biso   1.000  C
  O206     1.0000 0.95824  0.20540  0.42391  Biso   1.000  O
  C762     1.0000 0.98661  0.19107  0.34345  Biso   1.000  C
  C763     1.0000 0.94202  0.15849  0.26323  Biso   1.000  C
  H964     1.0000 0.87957  0.14492  0.27485  Biso   1.000  H
  H965     1.0000 0.90788  0.17083  0.46703  Biso   1.000  H
  O207     1.0000 0.83678  0.07923  0.53902  Biso   1.000  O
  C764     1.0000 0.79316  0.04803  0.45803  Biso   1.000  C
  C765     1.0000 0.74568  0.01208  0.37495  Biso   1.000  C
  H966     1.0000 0.93628  0.19034  0.44265  Biso   1.000  H
  C766     1.0000 0.98169  0.17545  0.29031  Biso   1.000  C
  O208     1.0000 0.02725  0.20830  0.37074  Biso   1.000  O
  C767     1.0000 0.93698  0.14178  0.20502  Biso   1.000  C
  H967     1.0000 0.81948  0.05424  0.55023  Biso   1.000  H
  O209     1.0000 0.76952  0.00891  0.48793  Biso   1.000  O
  C768     1.0000 0.71758  0.02374  0.33772  Biso   1.000  C
  C769     1.0000 0.76280  0.98531  0.34582  Biso   1.000  C
  H968     1.0000 0.72577  0.99284  0.40354  Biso   1.000  H
  O210     1.0000 0.01929  0.17833  0.26573  Biso   1.000  O
  H969     1.0000 0.04538  0.20734  0.35045  Biso   1.000  H
  C770     1.0000 0.92068  0.09260  0.20363  Biso   1.000  C
  H970     1.0000 0.96689  0.15614  0.18972  Biso   1.000  H
  C771     1.0000 0.91068  0.15585  0.16874  Biso   1.000  C
  H971     1.0000 0.76304  0.98772  0.46793  Biso   1.000  H
  H972     1.0000 0.73475  0.03922  0.30574  Biso   1.000  H
  H973     1.0000 0.71058  0.04364  0.35724  Biso   1.000  H
  C772     1.0000 0.67447  0.98303  0.31923  Biso   1.000  C
  C773     1.0000 0.76256  0.94943  0.37061  Biso   1.000  C
  C774     1.0000 0.77906  0.99472  0.29265  Biso   1.000  C
  H974     1.0000 0.01197  0.15654  0.24654  Biso   1.000  H
  C775     1.0000 0.95002  0.07728  0.20183  Biso   1.000  C
  C776     1.0000 0.87628  0.06104  0.20404  Biso   1.000  C
  H975     1.0000 0.90967  0.14462  0.13205  Biso   1.000  H
  H976     1.0000 0.88058  0.14185  0.18224  Biso   1.000  H
  C777     1.0000 0.92857  0.20563  0.16514  Biso   1.000  C
  H977     1.0000 0.68105  0.96022  0.30733  Biso   1.000  H
  C778     1.0000 0.65476  0.99525  0.27105  Biso   1.000  C
  C779     1.0000 0.64238  0.96534  0.36701  Biso   1.000  C
  O211     1.0000 0.74709  0.93725  0.42391  Biso   1.000  O
  C780     1.0000 0.77804  0.92533  0.34382  Biso   1.000  C
  H978     1.0000 0.77985  0.01872  0.27522  Biso   1.000  H
  C781     1.0000 0.79395  0.97082  0.26372  Biso   1.000  C
  O212     1.0000 0.99566  0.10630  0.20101  Biso   1.000  O
  C782     1.0000 0.93536  0.03242  0.20044  Biso   1.000  C
  C783     1.0000 0.85969  0.01555  0.20281  Biso   1.000  C
  H979     1.0000 0.85608  0.07094  0.20523  Biso   1.000  H
  H980     1.0000 0.92865  0.21672  0.20204  Biso   1.000  H
  C784     1.0000 0.89868  0.21504  0.12902  Biso   1.000  C
  C785     1.0000 0.97588  0.22953  0.14334  Biso   1.000  C
  H981     1.0000 0.64836  0.01773  0.28213  Biso   1.000  H
  H982     1.0000 0.67549  0.00594  0.24135  Biso   1.000  H
  H983     1.0000 0.62796  0.96943  0.25943  Biso   1.000  H
  H984     1.0000 0.61533  0.93982  0.35544  Biso   1.000  H
  H985     1.0000 0.65516  0.95722  0.39634  Biso   1.000  H
  H986     1.0000 0.63613  0.98772  0.37953  Biso   1.000  H
  H987     1.0000 0.75427  0.95943  0.44232  Biso   1.000  H
  O213     1.0000 0.77733  0.88984  0.37123  Biso   1.000  O
  C786     1.0000 0.79338  0.93576  0.29093  Biso   1.000  C
  C787     1.0000 0.81106  0.98274  0.20515  Biso   1.000  C
  H988     1.0000 0.00166  0.12762  0.22065  Biso   1.000  H
  O214     1.0000 0.96647  0.01835  0.19885  Biso   1.000  O
  C788     1.0000 0.89099  0.00228  0.20142  Biso   1.000  C
  H989     1.0000 0.91018  0.24633  0.12701  Biso   1.000  H
  H990     1.0000 0.89759  0.20365  0.09294  Biso   1.000  H
  H991     1.0000 0.86947  0.20094  0.14432  Biso   1.000  H
  H992     1.0000 0.98637  0.26062  0.14154  Biso   1.000  H
  H993     1.0000 0.99447  0.22434  0.16735  Biso   1.000  H
  H994     1.0000 0.97646  0.21873  0.10742  Biso   1.000  H
  H995     1.0000 0.78703  0.87802  0.35094  Biso   1.000  H
  O215     1.0000 0.80781  0.90945  0.26585  Biso   1.000  O
  H996     1.0000 0.80758  0.95553  0.18895  Biso   1.000  H
  C789     1.0000 0.78285  0.99544  0.17033  Biso   1.000  C
  H997     1.0000 0.95378  0.99132  0.19823  Biso   1.000  H
  O216     1.0000 0.87801  0.95728  0.20114  Biso   1.000  O
  H998     1.0000 0.82928  0.92483  0.24663  Biso   1.000  H
  H999     1.0000 0.79636  0.00383  0.13454  Biso   1.000  H
  H1000    1.0000 0.78427  0.02133  0.18662  Biso   1.000  H
  C790     1.0000 0.73626  0.96253  0.16252  Biso   1.000  C
  H1001    1.0000 0.85646  0.94375  0.22102  Biso   1.000  H
  H1002    1.0000 0.72225  0.95154  0.19823  Biso   1.000  H
  C791     1.0000 0.71205  0.98072  0.13205  Biso   1.000  C
  C792     1.0000 0.73237  0.92434  0.12804  Biso   1.000  C
  H1003    1.0000 0.71156  0.00353  0.15332  Biso   1.000  H
  H1004    1.0000 0.72669  0.99284  0.09785  Biso   1.000  H
  H1005    1.0000 0.68234  0.95755  0.12521  Biso   1.000  H
  H1006    1.0000 0.74857  0.91212  0.14522  Biso   1.000  H
  H1007    1.0000 0.70186  0.90202  0.12505  Biso   1.000  H
  H1008    1.0000 0.74416  0.93493  0.09224  Biso   1.000  H
  Ne1      1.0000 0.22442  0.15123  0.30118  Biso   1.000  Ne
  He1      1.0000 0.20855  0.14046  0.31197  Biso   1.000  He
  He2      1.0000 0.23586  0.15902  0.29057  Biso   1.000  He
  Ar1      1.0000 0.22436  0.15120  0.30113  Biso   1.000  Ar
  Ne2      1.0000 0.44225  0.18211  0.03215  Biso   1.000  Ne
  He3      1.0000 0.43070  0.17423  0.04288  Biso   1.000  He
  He4      1.0000 0.45997  0.19413  0.01581  Biso   1.000  He
  Ar2      1.0000 0.44481  0.18383  0.03305  Biso   1.000  Ar
  Ne3      1.0000 0.51544  0.40653  0.63451  Biso   1.000  Ne
  He5      1.0000 0.52828  0.40044  0.64796  Biso   1.000  He
  He6      1.0000 0.50602  0.41095  0.62131  Biso   1.000  He
  Ar3      1.0000 0.51649  0.40601  0.63278  Biso   1.000  Ar
  Ne4      1.0000 0.48456  0.59347  0.36548  Biso   1.000  Ne
  He7      1.0000 0.49074  0.59059  0.37494  Biso   1.000  He
  He8      1.0000 0.47192  0.59946  0.34832  Biso   1.000  He
  Ar4      1.0000 0.48435  0.59360  0.36586  Biso   1.000  Ar
  Ne5      1.0000 0.07320  0.22442  0.69882  Biso   1.000  Ne
  He9      1.0000 0.08233  0.25366  0.72798  Biso   1.000  He
  He10     1.0000 0.06909  0.21165  0.68702  Biso   1.000  He
  Ar5      1.0000 0.07317  0.22440  0.69882  Biso   1.000  Ar
  Ne6      1.0000 0.10891  0.51544  0.36548  Biso   1.000  Ne
  He11     1.0000 0.09737  0.50758  0.37621  Biso   1.000  He
  He12     1.0000 0.12249  0.52465  0.35297  Biso   1.000  He
  Ar6      1.0000 0.11069  0.51663  0.36701  Biso   1.000  Ar
  Ne7      1.0000 0.73986  0.55776  0.03215  Biso   1.000  Ne
  He13     1.0000 0.74890  0.58671  0.06172  Biso   1.000  He
  He14     1.0000 0.73576  0.54499  0.02038  Biso   1.000  He
  Ar7      1.0000 0.73983  0.55771  0.03220  Biso   1.000  Ar
  Ne8      1.0000 0.59347  0.10891  0.63451  Biso   1.000  Ne
  He15     1.0000 0.59926  0.12691  0.64714  Biso   1.000  He
  He16     1.0000 0.58985  0.09757  0.62394  Biso   1.000  He
  Ar8      1.0000 0.59398  0.11043  0.63271  Biso   1.000  Ar
  Ne9      1.0000 0.26014  0.44225  0.96784  Biso   1.000  Ne
  He17     1.0000 0.26436  0.45535  0.97618  Biso   1.000  He
  He18     1.0000 0.25698  0.43232  0.95603  Biso   1.000  He
  Ar9      1.0000 0.26016  0.44227  0.96785  Biso   1.000  Ar
  Ne10     1.0000 0.81790  0.26014  0.03215  Biso   1.000  Ne
  He19     1.0000 0.82364  0.25747  0.04263  Biso   1.000  He
  He20     1.0000 0.80527  0.26612  0.01497  Biso   1.000  He
  Ar10     1.0000 0.81790  0.26017  0.03217  Biso   1.000  Ar
  Ne11     1.0000 0.92681  0.77558  0.30118  Biso   1.000  Ne
  He21     1.0000 0.93103  0.78869  0.30954  Biso   1.000  He
  He22     1.0000 0.92365  0.76566  0.28940  Biso   1.000  He
  Ar11     1.0000 0.92684  0.77563  0.30113  Biso   1.000  Ar
  Ne12     1.0000 0.40653  0.89109  0.36548  Biso   1.000  Ne
  He23     1.0000 0.41565  0.92031  0.39470  Biso   1.000  He
  He24     1.0000 0.40241  0.87831  0.35371  Biso   1.000  He
  Ar12     1.0000 0.40649  0.89104  0.36554  Biso   1.000  Ar
  Ne13     1.0000 0.89109  0.48456  0.63451  Biso   1.000  Ne
  He25     1.0000 0.84703  0.45465  0.66995  Biso   1.000  He
  He26     1.0000 0.92521  0.50796  0.60386  Biso   1.000  He
  Ar13     1.0000 0.85138  0.45727  0.67181  Biso   1.000  Ar
  Ne14     1.0000 0.77558  0.84878  0.69882  Biso   1.000  Ne
  He27     1.0000 0.76597  0.84222  0.71032  Biso   1.000  He
  He28     1.0000 0.81515  0.87565  0.66225  Biso   1.000  He
  Ar14     1.0000 0.81514  0.87574  0.66208  Biso   1.000  Ar
  Ne15     1.0000 0.55776  0.81790  0.96784  Biso   1.000  Ne
  He29     1.0000 0.53697  0.80379  0.98292  Biso   1.000  He
  He30     1.0000 0.59129  0.84093  0.93434  Biso   1.000  He
  Ar15     1.0000 0.55597  0.81670  0.96629  Biso   1.000  Ar
  Ne16     1.0000 0.84878  0.07320  0.30118  Biso   1.000  Ne
  He31     1.0000 0.87855  0.05912  0.33644  Biso   1.000  He
  He32     1.0000 0.83937  0.07760  0.28797  Biso   1.000  He
  Ar16     1.0000 0.86987  0.06322  0.32976  Biso   1.000  Ar
  Ne17     1.0000 0.18211  0.73986  0.96784  Biso   1.000  Ne
  He33     1.0000 0.19494  0.73377  0.98129  Biso   1.000  He
  He34     1.0000 0.17259  0.74431  0.95487  Biso   1.000  He
  Ar17     1.0000 0.18314  0.73933  0.96609  Biso   1.000  Ar
  Ne18     1.0000 0.15123  0.92681  0.69882  Biso   1.000  Ne
  He35     1.0000 0.16025  0.92260  0.71113  Biso   1.000  He
  He36     1.0000 0.14048  0.93193  0.68423  Biso   1.000  He
  Ar18     1.0000 0.15057  0.92718  0.69998  Biso   1.000  Ar
