data_image0
_cell_length_a       17.941
_cell_length_b       22.599
_cell_length_c       25.841
_cell_angle_alpha    90
_cell_angle_beta     102.18
_cell_angle_gamma    90

_symmetry_space_group_name_H-M    "P 1"
_symmetry_int_tables_number       1

loop_
  _symmetry_equiv_pos_as_xyz
  'x, y, z'

loop_
  _atom_site_label
  _atom_site_occupancy
  _atom_site_fract_x
  _atom_site_fract_y
  _atom_site_fract_z
  _atom_site_thermal_displace_type
  _atom_site_B_iso_or_equiv
  _atom_site_type_symbol
  C1       1.0000 0.52967  0.45267  0.55481  Biso   1.000  C
  C2       1.0000 0.55926  0.39449  0.56431  Biso   1.000  C
  C3       1.0000 0.46496  0.46838  0.57298  Biso   1.000  C
  H1       1.0000 0.55334  0.47989  0.53659  Biso   1.000  H
  C4       1.0000 0.52201  0.35471  0.59289  Biso   1.000  C
  C5       1.0000 0.62674  0.37550  0.54610  Biso   1.000  C
  C6       1.0000 0.42634  0.42869  0.60089  Biso   1.000  C
  H2       1.0000 0.44597  0.50670  0.56660  Biso   1.000  H
  H3       1.0000 0.54126  0.31670  0.60010  Biso   1.000  H
  C7       1.0000 0.45824  0.37170  0.61011  Biso   1.000  C
  N1       1.0000 0.65705  0.40511  0.51450  Biso   1.000  N
  H4       1.0000 0.64882  0.33948  0.55841  Biso   1.000  H
  C8       1.0000 0.35606  0.44559  0.61649  Biso   1.000  C
  H5       1.0000 0.43484  0.34448  0.62848  Biso   1.000  H
  C9       1.0000 0.72487  0.37988  0.49831  Biso   1.000  C
  C10      1.0000 0.33674  0.42307  0.66241  Biso   1.000  C
  C11      1.0000 0.30486  0.48719  0.58869  Biso   1.000  C
  H6       1.0000 0.71863  0.38267  0.46019  Biso   1.000  H
  H7       1.0000 0.72984  0.33838  0.50809  Biso   1.000  H
  C12      1.0000 0.79484  0.41258  0.52480  Biso   1.000  C
  C13      1.0000 0.27054  0.43931  0.67749  Biso   1.000  C
  H8       1.0000 0.36953  0.39648  0.68319  Biso   1.000  H
  H9       1.0000 0.31677  0.50520  0.55908  Biso   1.000  H
  C14      1.0000 0.23875  0.50237  0.60279  Biso   1.000  C
  N2       1.0000 0.82055  0.39391  0.58042  Biso   1.000  N
  H10      1.0000 0.83522  0.40537  0.50579  Biso   1.000  H
  H11      1.0000 0.78424  0.45471  0.52349  Biso   1.000  H
  C15      1.0000 0.22163  0.47918  0.64899  Biso   1.000  C
  H12      1.0000 0.25893  0.42267  0.70790  Biso   1.000  H
  H13      1.0000 0.20495  0.52830  0.58181  Biso   1.000  H
  C16      1.0000 0.86634  0.44051  0.61170  Biso   1.000  C
  C17      1.0000 0.86604  0.33860  0.58450  Biso   1.000  C
  N3       1.0000 0.15406  0.49808  0.66562  Biso   1.000  N
  H14      1.0000 0.89934  0.45838  0.59079  Biso   1.000  H
  H15      1.0000 0.89845  0.42298  0.64289  Biso   1.000  H
  C18      1.0000 0.81704  0.48741  0.62848  Biso   1.000  C
  C19      1.0000 0.86552  0.30528  0.63430  Biso   1.000  C
  H16      1.0000 0.91824  0.34838  0.58311  Biso   1.000  H
  H17      1.0000 0.84564  0.31360  0.55441  Biso   1.000  H
  C20      1.0000 0.11404  0.45768  0.69020  Biso   1.000  C
  C21      1.0000 0.12616  0.55640  0.65580  Biso   1.000  C
  N4       1.0000 0.78515  0.46869  0.67433  Biso   1.000  N
  H18      1.0000 0.84693  0.52308  0.63771  Biso   1.000  H
  H19      1.0000 0.77541  0.49670  0.59899  Biso   1.000  H
  N5       1.0000 0.79221  0.27280  0.63169  Biso   1.000  N
  H20      1.0000 0.87342  0.33280  0.66379  Biso   1.000  H
  H21      1.0000 0.90741  0.27731  0.64048  Biso   1.000  H
  C22      1.0000 0.09986  0.40050  0.67290  Biso   1.000  C
  C23      1.0000 0.08375  0.47418  0.73470  Biso   1.000  C
  C24      1.0000 0.04753  0.56759  0.64321  Biso   1.000  C
  C25      1.0000 0.17597  0.60388  0.65940  Biso   1.000  C
  C26      1.0000 0.71383  0.46741  0.66890  Biso   1.000  C
  C27      1.0000 0.75362  0.28661  0.66558  Biso   1.000  C
  C28      1.0000 0.05892  0.36201  0.69610  Biso   1.000  C
  H22      1.0000 0.11907  0.38758  0.64420  Biso   1.000  H
  H23      1.0000 0.09304  0.51219  0.74840  Biso   1.000  H
  C29      1.0000 0.04165  0.43648  0.75810  Biso   1.000  C
  H24      1.0000 0.01276  0.53679  0.64159  Biso   1.000  H
  C30      1.0000 0.02253  0.62450  0.63339  Biso   1.000  C
  C31      1.0000 0.14976  0.66038  0.64871  Biso   1.000  C
  H25      1.0000 0.22822  0.59719  0.66938  Biso   1.000  H
  H26      1.0000 0.68372  0.47807  0.63640  Biso   1.000  H
  C32      1.0000 0.67595  0.44958  0.71170  Biso   1.000  C
  C33      1.0000 0.68282  0.25652  0.66609  Biso   1.000  C
  H27      1.0000 0.77080  0.31621  0.69020  Biso   1.000  H
  C34      1.0000 0.02796  0.37798  0.73909  Biso   1.000  C
  H28      1.0000 0.05122  0.32378  0.68268  Biso   1.000  H
  H29      1.0000 0.02171  0.44931  0.78660  Biso   1.000  H
  C35      1.0000 0.07306  0.67229  0.63679  Biso   1.000  C
  H30      1.0000 0.97043  0.63167  0.62409  Biso   1.000  H
  H31      1.0000 0.18444  0.69118  0.64950  Biso   1.000  H
  C36      1.0000 0.59813  0.44617  0.70251  Biso   1.000  C
  C37      1.0000 0.71650  0.43449  0.76150  Biso   1.000  C
  C38      1.0000 0.65495  0.21169  0.63141  Biso   1.000  C
  C39      1.0000 0.63685  0.27329  0.70299  Biso   1.000  C
  C40      1.0000 0.97632  0.33891  0.76138  Biso   1.000  C
  H32      1.0000 0.05515  0.71087  0.63121  Biso   1.000  H
  H33      1.0000 0.56955  0.45591  0.66918  Biso   1.000  H
  C41      1.0000 0.56052  0.42798  0.74270  Biso   1.000  C
  C42      1.0000 0.68045  0.41599  0.79971  Biso   1.000  C
  H34      1.0000 0.76944  0.43710  0.76898  Biso   1.000  H
  C43      1.0000 0.58644  0.18470  0.63121  Biso   1.000  C
  H35      1.0000 0.68332  0.19939  0.60718  Biso   1.000  H
  H36      1.0000 0.65262  0.30360  0.72718  Biso   1.000  H
  C44      1.0000 0.56915  0.24408  0.70251  Biso   1.000  C
  C45      1.0000 0.98786  0.27851  0.76451  Biso   1.000  C
  C46      1.0000 0.91315  0.35957  0.77821  Biso   1.000  C
  H37      1.0000 0.50753  0.42648  0.73581  Biso   1.000  H
  C47      1.0000 0.60113  0.41281  0.79107  Biso   1.000  C
  H38      1.0000 0.70931  0.40519  0.83249  Biso   1.000  H
  C48      1.0000 0.54155  0.20160  0.66688  Biso   1.000  C
  H39      1.0000 0.56966  0.15461  0.60698  Biso   1.000  H
  H40      1.0000 0.54135  0.25421  0.72769  Biso   1.000  H
  H41      1.0000 0.03034  0.26280  0.75410  Biso   1.000  H
  C49      1.0000 0.93792  0.24001  0.78288  Biso   1.000  C
  H42      1.0000 0.90434  0.40019  0.77730  Biso   1.000  H
  C50      1.0000 0.86236  0.32338  0.79650  Biso   1.000  C
  C51      1.0000 0.56443  0.38900  0.83280  Biso   1.000  C
  C52      1.0000 0.46714  0.17129  0.66451  Biso   1.000  C
  C53      1.0000 0.87522  0.26289  0.79828  Biso   1.000  C
  H43      1.0000 0.94725  0.19948  0.78458  Biso   1.000  H
  H44      1.0000 0.82027  0.33931  0.80731  Biso   1.000  H
  C54      1.0000 0.50070  0.41378  0.84650  Biso   1.000  C
  C55      1.0000 0.59415  0.33798  0.85960  Biso   1.000  C
  C56      1.0000 0.42097  0.15629  0.61641  Biso   1.000  C
  C57      1.0000 0.44133  0.15660  0.71091  Biso   1.000  C
  C58      1.0000 0.82132  0.22311  0.81610  Biso   1.000  C
  H45      1.0000 0.47950  0.44710  0.82789  Biso   1.000  H
  C59      1.0000 0.46634  0.39227  0.88601  Biso   1.000  C
  C60      1.0000 0.55840  0.31289  0.89860  Biso   1.000  C
  H46      1.0000 0.63732  0.32028  0.85200  Biso   1.000  H
  C61      1.0000 0.35233  0.12598  0.61411  Biso   1.000  C
  H47      1.0000 0.43576  0.16651  0.58509  Biso   1.000  H
  H48      1.0000 0.47024  0.16740  0.74369  Biso   1.000  H
  C62      1.0000 0.37255  0.12589  0.70798  Biso   1.000  C
  N6       1.0000 0.76071  0.23908  0.82960  Biso   1.000  N
  H49      1.0000 0.83254  0.18280  0.81760  Biso   1.000  H
  H50      1.0000 0.42432  0.41108  0.89448  Biso   1.000  H
  C63      1.0000 0.49819  0.34041  0.91289  Biso   1.000  C
  H51      1.0000 0.57641  0.27731  0.91459  Biso   1.000  H
  C64      1.0000 0.32693  0.11120  0.66019  Biso   1.000  C
  H52      1.0000 0.32296  0.11540  0.58129  Biso   1.000  H
  H53      1.0000 0.35776  0.11531  0.73909  Biso   1.000  H
  C65      1.0000 0.71201  0.19368  0.84468  Biso   1.000  C
  N7       1.0000 0.46602  0.31647  0.95410  Biso   1.000  N
  N8       1.0000 0.25733  0.08031  0.65548  Biso   1.000  N
  C66      1.0000 0.70116  0.20350  0.90121  Biso   1.000  C
  H54      1.0000 0.73472  0.15510  0.84218  Biso   1.000  H
  H55      1.0000 0.66272  0.19430  0.82041  Biso   1.000  H
  C67      1.0000 0.51793  0.28829  0.99690  Biso   1.000  C
  C68      1.0000 0.38769  0.31311  0.95169  Biso   1.000  C
  C69      1.0000 0.23244  0.04031  0.61486  Biso   1.000  C
  C70      1.0000 0.21352  0.08978  0.69511  Biso   1.000  C
  H56      1.0000 0.69101  0.24519  0.90580  Biso   1.000  H
  H57      1.0000 0.65682  0.18138  0.90608  Biso   1.000  H
  N9       1.0000 0.76663  0.18580  0.94167  Biso   1.000  N
  C71      1.0000 0.50896  0.23028  0.00921  Biso   1.000  C
  C72      1.0000 0.58124  0.31988  0.02457  Biso   1.000  C
  C73      1.0000 0.33410  0.31209  0.90501  Biso   1.000  C
  C74      1.0000 0.35881  0.30970  0.99840  Biso   1.000  C
  C75      1.0000 0.15615  0.04438  0.58941  Biso   1.000  C
  C76      1.0000 0.27956  0.99898  0.59788  Biso   1.000  C
  C77      1.0000 0.17886  0.04182  0.71439  Biso   1.000  C
  C78      1.0000 0.19873  0.14549  0.71229  Biso   1.000  C
  C79      1.0000 0.76975  0.21988  0.98938  Biso   1.000  C
  C80      1.0000 0.76503  0.12301  0.95018  Biso   1.000  C
  H58      1.0000 0.47021  0.20771  0.98898  Biso   1.000  H
  C81      1.0000 0.55885  0.20550  0.05288  Biso   1.000  C
  C82      1.0000 0.63146  0.29417  0.06658  Biso   1.000  C
  H59      1.0000 0.58943  0.35851  0.01468  Biso   1.000  H
  H60      1.0000 0.35001  0.31377  0.87299  Biso   1.000  H
  C83      1.0000 0.25625  0.30838  0.90450  Biso   1.000  C
  C84      1.0000 0.28534  0.30661  0.99821  Biso   1.000  C
  H61      1.0000 0.39326  0.30948  0.03091  Biso   1.000  H
  H62      1.0000 0.12467  0.07199  0.60081  Biso   1.000  H
  C85      1.0000 0.12718  0.00739  0.54709  Biso   1.000  C
  C86      1.0000 0.25057  0.96199  0.55548  Biso   1.000  C
  H63      1.0000 0.33067  0.99628  0.61490  Biso   1.000  H
  C87      1.0000 0.13272  0.05071  0.75057  Biso   1.000  C
  H64      1.0000 0.18654  0.00372  0.70299  Biso   1.000  H
  H65      1.0000 0.21846  0.17811  0.69780  Biso   1.000  H
  C88      1.0000 0.15702  0.15470  0.74911  Biso   1.000  C
  C89      1.0000 0.79993  0.28161  0.98799  Biso   1.000  C
  H66      1.0000 0.71874  0.22209  0.99631  Biso   1.000  H
  H67      1.0000 0.80140  0.19899  0.01867  Biso   1.000  H
  H68      1.0000 0.74225  0.10368  0.91721  Biso   1.000  H
  H69      1.0000 0.73354  0.11470  0.97548  Biso   1.000  H
  C90      1.0000 0.84532  0.09770  0.97101  Biso   1.000  C
  H70      1.0000 0.55038  0.16700  0.06297  Biso   1.000  H
  C91      1.0000 0.61857  0.23550  0.08047  Biso   1.000  C
  H71      1.0000 0.67306  0.31528  0.08518  Biso   1.000  H
  H72      1.0000 0.22133  0.30758  0.87231  Biso   1.000  H
  C92      1.0000 0.23012  0.30590  0.95149  Biso   1.000  C
  H73      1.0000 0.26994  0.30479  0.03027  Biso   1.000  H
  H74      1.0000 0.07605  0.01009  0.52998  Biso   1.000  H
  C93      1.0000 0.17424  0.96610  0.53010  Biso   1.000  C
  H75      1.0000 0.28203  0.93442  0.54420  Biso   1.000  H
  C94      1.0000 0.12165  0.10638  0.76898  Biso   1.000  C
  H76      1.0000 0.10904  0.01841  0.76269  Biso   1.000  H
  H77      1.0000 0.15156  0.19280  0.76138  Biso   1.000  H
  N10      1.0000 0.88295  0.28019  0.99100  Biso   1.000  N
  H78      1.0000 0.77482  0.30099  0.95561  Biso   1.000  H
  H79      1.0000 0.78931  0.30408  0.01761  Biso   1.000  H
  N11      1.0000 0.88310  0.09368  0.92603  Biso   1.000  N
  H80      1.0000 0.87412  0.12328  0.99809  Biso   1.000  H
  H81      1.0000 0.84203  0.05881  0.98621  Biso   1.000  H
  H82      1.0000 0.65136  0.21758  0.10878  Biso   1.000  H
  C95      1.0000 0.14784  0.30462  0.95109  Biso   1.000  C
  H83      1.0000 0.15475  0.94128  0.50172  Biso   1.000  H
  C96      1.0000 0.07344  0.11518  0.81008  Biso   1.000  C
  C97      1.0000 0.90831  0.29908  0.95248  Biso   1.000  C
  C98      1.0000 0.94044  0.12651  0.92908  Biso   1.000  C
  C99      1.0000 0.09226  0.32709  0.90961  Biso   1.000  C
  C100     1.0000 0.12041  0.27939  0.99270  Biso   1.000  C
  C101     1.0000 0.00671  0.08230  0.80620  Biso   1.000  C
  C102     1.0000 0.09433  0.15390  0.85149  Biso   1.000  C
  C103     1.0000 0.99061  0.30028  0.95129  Biso   1.000  C
  H84      1.0000 0.87374  0.31311  0.92311  Biso   1.000  H
  H85      1.0000 0.95451  0.15200  0.95779  Biso   1.000  H
  C104     1.0000 0.98642  0.12509  0.88688  Biso   1.000  C
  H86      1.0000 0.10763  0.34311  0.88039  Biso   1.000  H
  C105     1.0000 0.01535  0.32661  0.91000  Biso   1.000  C
  C106     1.0000 0.04481  0.27669  0.99429  Biso   1.000  C
  H87      1.0000 0.15560  0.26360  0.02101  Biso   1.000  H
  C107     1.0000 0.96444  0.08708  0.84428  Biso   1.000  C
  H88      1.0000 0.99103  0.05691  0.77769  Biso   1.000  H
  H89      1.0000 0.13702  0.17780  0.85331  Biso   1.000  H
  C108     1.0000 0.05251  0.15779  0.89068  Biso   1.000  C
  H90      1.0000 0.98043  0.34400  0.88241  Biso   1.000  H
  H91      1.0000 0.02928  0.25970  0.02299  Biso   1.000  H
  H92      1.0000 0.92035  0.06469  0.84151  Biso   1.000  H
  H93      1.0000 0.06891  0.18249  0.91970  Biso   1.000  H
  C109     1.0000 0.47028  0.54728  0.44522  Biso   1.000  C
  C110     1.0000 0.44063  0.60547  0.43568  Biso   1.000  C
  C111     1.0000 0.53498  0.53157  0.42701  Biso   1.000  C
  H94      1.0000 0.44654  0.52007  0.46339  Biso   1.000  H
  C112     1.0000 0.37315  0.62450  0.45389  Biso   1.000  C
  C113     1.0000 0.47787  0.64529  0.40710  Biso   1.000  C
  C114     1.0000 0.57354  0.57131  0.39910  Biso   1.000  C
  H95      1.0000 0.55397  0.49330  0.43338  Biso   1.000  H
  N12      1.0000 0.34284  0.59489  0.48548  Biso   1.000  N
  H96      1.0000 0.35107  0.66047  0.44158  Biso   1.000  H
  H97      1.0000 0.45868  0.68330  0.39989  Biso   1.000  H
  C115     1.0000 0.54165  0.62830  0.38992  Biso   1.000  C
  C116     1.0000 0.64388  0.55441  0.38350  Biso   1.000  C
  C117     1.0000 0.27509  0.62007  0.50172  Biso   1.000  C
  H98      1.0000 0.56504  0.65547  0.37151  Biso   1.000  H
  C118     1.0000 0.66315  0.57688  0.33758  Biso   1.000  C
  C119     1.0000 0.69508  0.51281  0.41129  Biso   1.000  C
  C120     1.0000 0.20505  0.58737  0.47519  Biso   1.000  C
  H99      1.0000 0.28126  0.61728  0.53980  Biso   1.000  H
  H100     1.0000 0.27004  0.66158  0.49190  Biso   1.000  H
  C121     1.0000 0.72935  0.56069  0.32249  Biso   1.000  C
  H101     1.0000 0.63035  0.60348  0.31679  Biso   1.000  H
  H102     1.0000 0.68317  0.49480  0.44091  Biso   1.000  H
  C122     1.0000 0.76114  0.49759  0.39720  Biso   1.000  C
  N13      1.0000 0.17934  0.60609  0.41957  Biso   1.000  N
  H103     1.0000 0.16467  0.59458  0.49419  Biso   1.000  H
  H104     1.0000 0.21564  0.54529  0.47650  Biso   1.000  H
  C123     1.0000 0.77825  0.52078  0.35100  Biso   1.000  C
  H105     1.0000 0.74096  0.57728  0.29209  Biso   1.000  H
  H106     1.0000 0.79494  0.47170  0.41818  Biso   1.000  H
  C124     1.0000 0.13355  0.55949  0.38829  Biso   1.000  C
  C125     1.0000 0.13384  0.66140  0.41549  Biso   1.000  C
  N14      1.0000 0.84588  0.50188  0.33437  Biso   1.000  N
  C126     1.0000 0.18285  0.51259  0.37151  Biso   1.000  C
  H107     1.0000 0.10055  0.54157  0.40920  Biso   1.000  H
  H108     1.0000 0.10149  0.57697  0.35710  Biso   1.000  H
  C127     1.0000 0.13437  0.69468  0.36569  Biso   1.000  C
  H109     1.0000 0.08166  0.65158  0.41692  Biso   1.000  H
  H110     1.0000 0.15424  0.68640  0.44558  Biso   1.000  H
  C128     1.0000 0.88585  0.54228  0.30979  Biso   1.000  C
  C129     1.0000 0.87373  0.44360  0.34419  Biso   1.000  C
  N15      1.0000 0.21479  0.53131  0.32566  Biso   1.000  N
  H111     1.0000 0.15296  0.47688  0.36228  Biso   1.000  H
  H112     1.0000 0.22447  0.50330  0.40100  Biso   1.000  H
  N16      1.0000 0.20768  0.72720  0.36830  Biso   1.000  N
  H113     1.0000 0.12647  0.66720  0.33619  Biso   1.000  H
  H114     1.0000 0.09247  0.72269  0.35951  Biso   1.000  H
  C130     1.0000 0.90008  0.59950  0.32709  Biso   1.000  C
  C131     1.0000 0.91613  0.52578  0.26529  Biso   1.000  C
  C132     1.0000 0.95235  0.43241  0.35678  Biso   1.000  C
  C133     1.0000 0.82397  0.39608  0.34059  Biso   1.000  C
  C134     1.0000 0.28605  0.53259  0.33109  Biso   1.000  C
  C135     1.0000 0.24626  0.71339  0.33441  Biso   1.000  C
  C136     1.0000 0.94096  0.63799  0.30389  Biso   1.000  C
  H115     1.0000 0.88087  0.61237  0.35579  Biso   1.000  H
  H116     1.0000 0.90684  0.48781  0.25159  Biso   1.000  H
  C137     1.0000 0.95824  0.56348  0.24189  Biso   1.000  C
  H117     1.0000 0.98713  0.46321  0.35840  Biso   1.000  H
  C138     1.0000 0.97735  0.37550  0.36660  Biso   1.000  C
  C139     1.0000 0.85014  0.33957  0.35132  Biso   1.000  C
  H118     1.0000 0.77167  0.40281  0.33061  Biso   1.000  H
  H119     1.0000 0.31616  0.52188  0.36359  Biso   1.000  H
  C140     1.0000 0.32399  0.55038  0.28829  Biso   1.000  C
  C141     1.0000 0.31706  0.74348  0.33390  Biso   1.000  C
  H120     1.0000 0.22908  0.68379  0.30979  Biso   1.000  H
  C142     1.0000 0.97193  0.62197  0.26089  Biso   1.000  C
  H121     1.0000 0.94866  0.67618  0.31731  Biso   1.000  H
  H122     1.0000 0.97817  0.55069  0.21339  Biso   1.000  H
  C143     1.0000 0.92682  0.32771  0.36319  Biso   1.000  C
  H123     1.0000 0.02945  0.36829  0.37590  Biso   1.000  H
  H124     1.0000 0.81544  0.30877  0.35048  Biso   1.000  H
  C144     1.0000 0.40176  0.55379  0.29751  Biso   1.000  C
  C145     1.0000 0.28339  0.56547  0.23849  Biso   1.000  C
  C146     1.0000 0.34495  0.78826  0.36862  Biso   1.000  C
  C147     1.0000 0.36309  0.72667  0.29700  Biso   1.000  C
  C148     1.0000 0.02357  0.66109  0.23861  Biso   1.000  C
  H125     1.0000 0.94475  0.28908  0.36881  Biso   1.000  H
  H126     1.0000 0.43039  0.54409  0.33081  Biso   1.000  H
  C149     1.0000 0.43937  0.57197  0.25729  Biso   1.000  C
  C150     1.0000 0.31949  0.58401  0.20028  Biso   1.000  C
  H127     1.0000 0.23050  0.56290  0.23100  Biso   1.000  H
  C151     1.0000 0.41345  0.81530  0.36881  Biso   1.000  C
  H128     1.0000 0.31657  0.80057  0.39281  Biso   1.000  H
  H129     1.0000 0.34727  0.69640  0.27281  Biso   1.000  H
  C152     1.0000 0.43075  0.75587  0.29751  Biso   1.000  C
  C153     1.0000 0.01204  0.72149  0.23552  Biso   1.000  C
  C154     1.0000 0.08674  0.64038  0.22178  Biso   1.000  C
  H130     1.0000 0.49235  0.57348  0.26418  Biso   1.000  H
  C155     1.0000 0.39881  0.58719  0.20891  Biso   1.000  C
  H131     1.0000 0.29058  0.59481  0.16750  Biso   1.000  H
  C156     1.0000 0.45834  0.79840  0.33310  Biso   1.000  C
  H132     1.0000 0.43028  0.84539  0.39300  Biso   1.000  H
  H133     1.0000 0.45859  0.74579  0.27230  Biso   1.000  H
  H134     1.0000 0.96954  0.73720  0.24589  Biso   1.000  H
  C157     1.0000 0.06196  0.75999  0.21711  Biso   1.000  C
  H135     1.0000 0.09554  0.59981  0.22269  Biso   1.000  H
  C158     1.0000 0.13753  0.67658  0.20349  Biso   1.000  C
  C159     1.0000 0.43546  0.61100  0.16719  Biso   1.000  C
  C160     1.0000 0.53275  0.82866  0.33548  Biso   1.000  C
  C161     1.0000 0.12467  0.73707  0.20171  Biso   1.000  C
  H136     1.0000 0.05264  0.80048  0.21541  Biso   1.000  H
  H137     1.0000 0.17967  0.66069  0.19268  Biso   1.000  H
  C162     1.0000 0.49918  0.58618  0.15349  Biso   1.000  C
  C163     1.0000 0.40580  0.66198  0.14038  Biso   1.000  C
  C164     1.0000 0.57897  0.84367  0.38358  Biso   1.000  C
  C165     1.0000 0.55856  0.84340  0.28908  Biso   1.000  C
  C166     1.0000 0.17856  0.77689  0.18389  Biso   1.000  C
  H138     1.0000 0.52039  0.55290  0.17209  Biso   1.000  H
  C167     1.0000 0.53356  0.60768  0.11402  Biso   1.000  C
  C168     1.0000 0.44149  0.68707  0.10139  Biso   1.000  C
  H139     1.0000 0.36257  0.67968  0.14799  Biso   1.000  H
  C169     1.0000 0.64756  0.87398  0.38588  Biso   1.000  C
  H140     1.0000 0.56413  0.83349  0.41490  Biso   1.000  H
  H141     1.0000 0.52965  0.83260  0.25630  Biso   1.000  H
  C170     1.0000 0.62739  0.87407  0.29201  Biso   1.000  C
  N17      1.0000 0.23917  0.76087  0.17039  Biso   1.000  N
  H142     1.0000 0.16735  0.81716  0.18239  Biso   1.000  H
  H143     1.0000 0.57557  0.58888  0.10551  Biso   1.000  H
  C171     1.0000 0.50169  0.65959  0.08710  Biso   1.000  C
  H144     1.0000 0.42348  0.72269  0.08539  Biso   1.000  H
  C172     1.0000 0.67296  0.88880  0.33980  Biso   1.000  C
  H145     1.0000 0.67693  0.88460  0.41870  Biso   1.000  H
  H146     1.0000 0.64218  0.88469  0.26089  Biso   1.000  H
  C173     1.0000 0.28787  0.80627  0.15531  Biso   1.000  C
  N18      1.0000 0.53387  0.68348  0.04588  Biso   1.000  N
  N19      1.0000 0.74256  0.91969  0.34451  Biso   1.000  N
  C174     1.0000 0.29874  0.79650  0.09882  Biso   1.000  C
  H147     1.0000 0.26517  0.84486  0.15780  Biso   1.000  H
  H148     1.0000 0.33718  0.80570  0.17962  Biso   1.000  H
  C175     1.0000 0.48196  0.71167  0.00309  Biso   1.000  C
  C176     1.0000 0.61219  0.68689  0.04830  Biso   1.000  C
  C177     1.0000 0.76746  0.95969  0.38516  Biso   1.000  C
  C178     1.0000 0.78638  0.91017  0.30492  Biso   1.000  C
  N20      1.0000 0.23326  0.81420  0.05832  Biso   1.000  N
  H149     1.0000 0.30887  0.75477  0.09418  Biso   1.000  H
  H150     1.0000 0.34307  0.81858  0.09391  Biso   1.000  H
  C179     1.0000 0.49094  0.76968  0.99082  Biso   1.000  C
  C180     1.0000 0.41865  0.68007  0.97542  Biso   1.000  C
  C181     1.0000 0.66579  0.68791  0.09501  Biso   1.000  C
  C182     1.0000 0.64108  0.69030  0.00158  Biso   1.000  C
  C183     1.0000 0.84374  0.95557  0.41058  Biso   1.000  C
  C184     1.0000 0.72038  0.00097  0.40211  Biso   1.000  C
  C185     1.0000 0.82109  0.95818  0.28560  Biso   1.000  C
  C186     1.0000 0.80116  0.85446  0.28770  Biso   1.000  C
  C187     1.0000 0.23019  0.78008  0.01061  Biso   1.000  C
  C188     1.0000 0.23485  0.87699  0.04980  Biso   1.000  C
  H151     1.0000 0.52968  0.79229  0.01101  Biso   1.000  H
  C189     1.0000 0.44104  0.79450  0.94711  Biso   1.000  C
  C190     1.0000 0.36843  0.70578  0.93341  Biso   1.000  C
  H152     1.0000 0.41045  0.64149  0.98531  Biso   1.000  H
  H153     1.0000 0.64988  0.68618  0.12700  Biso   1.000  H
  C191     1.0000 0.74369  0.69158  0.09549  Biso   1.000  C
  C192     1.0000 0.71460  0.69339  0.00178  Biso   1.000  C
  H154     1.0000 0.60662  0.69047  0.96908  Biso   1.000  H
  H155     1.0000 0.87522  0.92796  0.39918  Biso   1.000  H
  C193     1.0000 0.87276  0.99257  0.45290  Biso   1.000  C
  C194     1.0000 0.74937  0.03801  0.44451  Biso   1.000  C
  H156     1.0000 0.66928  0.00367  0.38509  Biso   1.000  H
  C195     1.0000 0.86716  0.94929  0.24941  Biso   1.000  C
  H157     1.0000 0.81335  0.99628  0.29700  Biso   1.000  H
  H158     1.0000 0.78148  0.82189  0.30219  Biso   1.000  H
  C196     1.0000 0.84287  0.84530  0.25092  Biso   1.000  C
  C197     1.0000 0.19996  0.71839  0.01200  Biso   1.000  C
  H159     1.0000 0.19855  0.80096  0.98131  Biso   1.000  H
  H160     1.0000 0.28115  0.77787  0.00368  Biso   1.000  H
  H161     1.0000 0.25764  0.89628  0.08278  Biso   1.000  H
  H162     1.0000 0.26635  0.88526  0.02451  Biso   1.000  H
  C198     1.0000 0.15457  0.90230  0.02902  Biso   1.000  C
  H163     1.0000 0.44956  0.83300  0.93701  Biso   1.000  H
  C199     1.0000 0.38137  0.76450  0.91951  Biso   1.000  C
  H164     1.0000 0.32682  0.68468  0.91480  Biso   1.000  H
  H165     1.0000 0.77857  0.69238  0.12772  Biso   1.000  H
  C200     1.0000 0.76977  0.69410  0.04850  Biso   1.000  C
  H166     1.0000 0.72994  0.69516  0.96971  Biso   1.000  H
  H167     1.0000 0.92383  0.98987  0.47000  Biso   1.000  H
  C201     1.0000 0.82564  0.03394  0.46989  Biso   1.000  C
  H168     1.0000 0.71785  0.06558  0.45579  Biso   1.000  H
  C202     1.0000 0.87829  0.89358  0.23100  Biso   1.000  C
  H169     1.0000 0.89085  0.98159  0.23730  Biso   1.000  H
  H170     1.0000 0.84839  0.80720  0.23861  Biso   1.000  H
  N21      1.0000 0.11699  0.71977  0.00899  Biso   1.000  N
  H171     1.0000 0.21063  0.69587  0.98238  Biso   1.000  H
  H172     1.0000 0.22508  0.69897  0.04442  Biso   1.000  H
  N22      1.0000 0.11678  0.90628  0.07395  Biso   1.000  N
  H173     1.0000 0.12577  0.87668  0.00190  Biso   1.000  H
  H174     1.0000 0.15787  0.94119  0.01382  Biso   1.000  H
  H175     1.0000 0.34852  0.78238  0.89121  Biso   1.000  H
  C203     1.0000 0.85210  0.69538  0.04889  Biso   1.000  C
  H176     1.0000 0.84515  0.05872  0.49831  Biso   1.000  H
  C204     1.0000 0.92645  0.88477  0.18991  Biso   1.000  C
  C205     1.0000 0.09158  0.70087  0.04751  Biso   1.000  C
  C206     1.0000 0.05945  0.87349  0.07090  Biso   1.000  C
  C207     1.0000 0.90768  0.67291  0.09038  Biso   1.000  C
  C208     1.0000 0.87948  0.72056  0.00728  Biso   1.000  C
  C209     1.0000 0.99317  0.91770  0.19379  Biso   1.000  C
  C210     1.0000 0.90556  0.84610  0.14850  Biso   1.000  C
  C211     1.0000 0.00928  0.69968  0.04869  Biso   1.000  C
  H177     1.0000 0.12614  0.68689  0.07688  Biso   1.000  H
  C212     1.0000 0.01347  0.87486  0.11311  Biso   1.000  C
  H178     1.0000 0.04538  0.84800  0.04220  Biso   1.000  H
  H179     1.0000 0.89226  0.65689  0.11960  Biso   1.000  H
  C213     1.0000 0.98459  0.67339  0.08999  Biso   1.000  C
  C214     1.0000 0.95508  0.72326  0.00570  Biso   1.000  C
  H180     1.0000 0.84436  0.73640  0.97902  Biso   1.000  H
  C215     1.0000 0.03544  0.91287  0.15570  Biso   1.000  C
  H181     1.0000 0.00886  0.94309  0.22229  Biso   1.000  H
  H182     1.0000 0.86288  0.82216  0.14672  Biso   1.000  H
  C216     1.0000 0.94738  0.84216  0.10931  Biso   1.000  C
  H183     1.0000 0.01946  0.65600  0.11758  Biso   1.000  H
  H184     1.0000 0.97060  0.74030  0.97700  Biso   1.000  H
  H185     1.0000 0.07955  0.93526  0.15852  Biso   1.000  H
  H186     1.0000 0.93098  0.81747  0.08029  Biso   1.000  H
  N23      1.0000 0.61675  0.59370  0.57393  Biso   1.000  N
  C217     1.0000 0.65454  0.59768  0.52899  Biso   1.000  C
  C218     1.0000 0.55941  0.62649  0.57088  Biso   1.000  C
  C219     1.0000 0.73482  0.62299  0.54978  Biso   1.000  C
  H187     1.0000 0.62574  0.62330  0.50191  Biso   1.000  H
  H188     1.0000 0.65783  0.55879  0.51379  Biso   1.000  H
  H189     1.0000 0.54534  0.65198  0.54218  Biso   1.000  H
  C220     1.0000 0.51343  0.62507  0.61308  Biso   1.000  C
  H190     1.0000 0.75762  0.60370  0.58280  Biso   1.000  H
  H191     1.0000 0.76632  0.61467  0.52448  Biso   1.000  H
  N24      1.0000 0.73323  0.68578  0.55829  Biso   1.000  N
  C221     1.0000 0.53541  0.58711  0.65568  Biso   1.000  C
  C222     1.0000 0.44734  0.65777  0.60928  Biso   1.000  C
  C223     1.0000 0.79871  0.70348  0.59879  Biso   1.000  C
  C224     1.0000 0.73016  0.71990  0.51058  Biso   1.000  C
  H192     1.0000 0.57952  0.56467  0.65849  Biso   1.000  H
  C225     1.0000 0.49315  0.58228  0.69380  Biso   1.000  C
  C226     1.0000 0.40554  0.65388  0.64851  Biso   1.000  C
  H193     1.0000 0.43096  0.68246  0.58030  Biso   1.000  H
  H194     1.0000 0.80885  0.74517  0.59420  Biso   1.000  H
  H195     1.0000 0.84303  0.68140  0.59388  Biso   1.000  H
  C227     1.0000 0.78784  0.69370  0.65528  Biso   1.000  C
  C228     1.0000 0.69993  0.78158  0.51201  Biso   1.000  C
  H196     1.0000 0.69857  0.69897  0.48129  Biso   1.000  H
  H197     1.0000 0.78112  0.72207  0.50370  Biso   1.000  H
  H198     1.0000 0.50884  0.55688  0.72231  Biso   1.000  H
  C229     1.0000 0.42641  0.61520  0.68988  Biso   1.000  C
  H199     1.0000 0.36284  0.67777  0.64669  Biso   1.000  H
  N25      1.0000 0.73915  0.73910  0.67041  Biso   1.000  N
  H200     1.0000 0.76513  0.65507  0.65778  Biso   1.000  H
  H201     1.0000 0.83714  0.69428  0.67959  Biso   1.000  H
  N26      1.0000 0.61697  0.78017  0.50900  Biso   1.000  N
  H202     1.0000 0.72505  0.80096  0.54439  Biso   1.000  H
  H203     1.0000 0.71066  0.80406  0.48240  Biso   1.000  H
  C230     1.0000 0.37826  0.60640  0.73098  Biso   1.000  C
  C231     1.0000 0.67854  0.72309  0.68391  Biso   1.000  C
  C232     1.0000 0.59154  0.79906  0.54748  Biso   1.000  C
  C233     1.0000 0.36713  0.55069  0.74939  Biso   1.000  C
  C234     1.0000 0.34284  0.65467  0.75089  Biso   1.000  C
  H204     1.0000 0.66732  0.68277  0.68240  Biso   1.000  H
  C235     1.0000 0.62464  0.76287  0.70168  Biso   1.000  C
  C236     1.0000 0.50926  0.80030  0.54871  Biso   1.000  C
  H205     1.0000 0.62612  0.81309  0.57690  Biso   1.000  H
  H206     1.0000 0.39083  0.51839  0.73731  Biso   1.000  H
  C237     1.0000 0.32106  0.54179  0.78561  Biso   1.000  C
  C238     1.0000 0.30113  0.64547  0.78771  Biso   1.000  C
  H207     1.0000 0.34835  0.69277  0.73858  Biso   1.000  H
  C239     1.0000 0.56193  0.73999  0.71708  Biso   1.000  C
  C240     1.0000 0.63751  0.82340  0.70350  Biso   1.000  C
  C241     1.0000 0.48457  0.82659  0.59000  Biso   1.000  C
  C242     1.0000 0.45506  0.77667  0.50571  Biso   1.000  C
  H208     1.0000 0.31332  0.50369  0.79701  Biso   1.000  H
  C243     1.0000 0.28634  0.58980  0.80489  Biso   1.000  C
  H209     1.0000 0.28146  0.67808  0.80220  Biso   1.000  H
  H210     1.0000 0.55260  0.69950  0.71538  Biso   1.000  H
  C244     1.0000 0.51201  0.77849  0.73549  Biso   1.000  C
  C245     1.0000 0.58671  0.85960  0.72179  Biso   1.000  C
  H211     1.0000 0.67965  0.83928  0.69270  Biso   1.000  H
  C246     1.0000 0.40766  0.82707  0.59040  Biso   1.000  C
  H212     1.0000 0.51943  0.84398  0.61759  Biso   1.000  H
  H213     1.0000 0.47064  0.75968  0.47701  Biso   1.000  H
  C247     1.0000 0.37946  0.77937  0.50730  Biso   1.000  C
  N27      1.0000 0.24252  0.58029  0.84448  Biso   1.000  N
  H214     1.0000 0.46952  0.76278  0.74590  Biso   1.000  H
  C248     1.0000 0.52354  0.83889  0.73858  Biso   1.000  C
  H215     1.0000 0.59552  0.90017  0.72270  Biso   1.000  H
  C249     1.0000 0.35208  0.80459  0.54891  Biso   1.000  C
  H216     1.0000 0.39224  0.84309  0.61961  Biso   1.000  H
  H217     1.0000 0.34438  0.76357  0.47899  Biso   1.000  H
  C250     1.0000 0.26742  0.54029  0.88514  Biso   1.000  C
  C251     1.0000 0.17294  0.61118  0.83981  Biso   1.000  C
  C252     1.0000 0.47191  0.87796  0.76091  Biso   1.000  C
  C253     1.0000 0.26974  0.80588  0.54851  Biso   1.000  C
  C254     1.0000 0.34371  0.54440  0.91059  Biso   1.000  C
  C255     1.0000 0.22034  0.49900  0.90208  Biso   1.000  C
  C256     1.0000 0.14753  0.62600  0.88589  Biso   1.000  C
  C257     1.0000 0.12736  0.62587  0.79199  Biso   1.000  C
  C258     1.0000 0.44094  0.86199  0.80390  Biso   1.000  C
  C259     1.0000 0.45822  0.93646  0.74190  Biso   1.000  C
  C260     1.0000 0.24367  0.80840  0.59550  Biso   1.000  C
  C261     1.0000 0.21458  0.80658  0.50180  Biso   1.000  C
  H218     1.0000 0.37520  0.57197  0.89919  Biso   1.000  H
  C262     1.0000 0.37273  0.50737  0.95288  Biso   1.000  C
  C263     1.0000 0.24934  0.46201  0.94448  Biso   1.000  C
  H219     1.0000 0.16925  0.49631  0.88510  Biso   1.000  H
  H220     1.0000 0.17690  0.61538  0.91871  Biso   1.000  H
  C264     1.0000 0.07895  0.65627  0.88360  Biso   1.000  C
  C265     1.0000 0.05853  0.65658  0.78910  Biso   1.000  C
  H221     1.0000 0.14216  0.61529  0.76091  Biso   1.000  H
  H222     1.0000 0.44863  0.82380  0.81728  Biso   1.000  H
  C266     1.0000 0.40005  0.90048  0.82710  Biso   1.000  C
  C267     1.0000 0.41611  0.97416  0.76530  Biso   1.000  C
  H223     1.0000 0.47815  0.94929  0.71340  Biso   1.000  H
  C268     1.0000 0.16576  0.81207  0.59499  Biso   1.000  C
  H224     1.0000 0.27853  0.80760  0.62769  Biso   1.000  H
  H225     1.0000 0.22996  0.80477  0.46969  Biso   1.000  H
  C269     1.0000 0.14106  0.80968  0.50160  Biso   1.000  C
  H226     1.0000 0.42380  0.51007  0.96998  Biso   1.000  H
  C270     1.0000 0.32562  0.46608  0.96990  Biso   1.000  C
  H227     1.0000 0.21783  0.43440  0.95581  Biso   1.000  H
  H228     1.0000 0.06411  0.66649  0.91491  Biso   1.000  H
  C271     1.0000 0.03273  0.67127  0.83549  Biso   1.000  C
  H229     1.0000 0.02961  0.66737  0.75628  Biso   1.000  H
  H230     1.0000 0.38085  0.88756  0.85580  Biso   1.000  H
  C272     1.0000 0.38582  0.95770  0.80980  Biso   1.000  C
  H231     1.0000 0.40682  0.01217  0.75160  Biso   1.000  H
  C273     1.0000 0.11217  0.81309  0.54831  Biso   1.000  C
  H232     1.0000 0.14984  0.81380  0.62698  Biso   1.000  H
  H233     1.0000 0.10666  0.80946  0.46909  Biso   1.000  H
  H234     1.0000 0.34511  0.44130  0.99829  Biso   1.000  H
  C274     1.0000 0.95831  0.70158  0.83308  Biso   1.000  C
  N28      1.0000 0.34585  0.99810  0.83435  Biso   1.000  N
  N29      1.0000 0.03385  0.81650  0.54590  Biso   1.000  N
  C275     1.0000 0.91342  0.68468  0.86879  Biso   1.000  C
  C276     1.0000 0.93071  0.74410  0.79749  Biso   1.000  C
  C277     1.0000 0.27823  0.97916  0.85101  Biso   1.000  C
  C278     1.0000 0.37370  0.05642  0.84420  Biso   1.000  C
  C279     1.0000 0.00167  0.84039  0.58711  Biso   1.000  C
  C280     1.0000 0.98194  0.78826  0.50310  Biso   1.000  C
  H235     1.0000 0.93025  0.65459  0.89298  Biso   1.000  H
  C281     1.0000 0.84491  0.71167  0.86859  Biso   1.000  C
  C282     1.0000 0.86307  0.77326  0.79701  Biso   1.000  C
  H236     1.0000 0.95857  0.75419  0.77231  Biso   1.000  H
  C283     1.0000 0.22933  0.93929  0.82251  Biso   1.000  C
  C284     1.0000 0.26110  0.00239  0.89717  Biso   1.000  C
  C285     1.0000 0.45233  0.06761  0.85679  Biso   1.000  C
  C286     1.0000 0.32395  0.10390  0.84060  Biso   1.000  C
  C287     1.0000 0.03353  0.89230  0.61399  Biso   1.000  C
  C288     1.0000 0.94147  0.81287  0.60140  Biso   1.000  C
  C289     1.0000 0.99096  0.73030  0.49079  Biso   1.000  C
  C290     1.0000 0.91867  0.81990  0.47539  Biso   1.000  C
  H237     1.0000 0.81654  0.69937  0.89278  Biso   1.000  H
  C291     1.0000 0.81704  0.75649  0.83391  Biso   1.000  C
  H238     1.0000 0.84723  0.80358  0.77278  Biso   1.000  H
  H239     1.0000 0.24093  0.92270  0.79210  Biso   1.000  H
  C292     1.0000 0.16312  0.92309  0.83759  Biso   1.000  C
  C293     1.0000 0.19505  0.98717  0.91131  Biso   1.000  C
  H240     1.0000 0.29491  0.02832  0.91820  Biso   1.000  H
  H241     1.0000 0.48709  0.03682  0.85838  Biso   1.000  H
  C294     1.0000 0.47733  0.12452  0.86661  Biso   1.000  C
  C295     1.0000 0.35011  0.16041  0.85129  Biso   1.000  C
  H242     1.0000 0.27163  0.09722  0.83058  Biso   1.000  H
  H243     1.0000 0.07553  0.91106  0.60548  Biso   1.000  H
  C296     1.0000 0.99916  0.91380  0.65350  Biso   1.000  C
  H244     1.0000 0.92345  0.77729  0.58541  Biso   1.000  H
  C297     1.0000 0.90577  0.83800  0.64040  Biso   1.000  C
  H245     1.0000 0.02965  0.70769  0.51098  Biso   1.000  H
  C298     1.0000 0.94106  0.70547  0.44708  Biso   1.000  C
  C299     1.0000 0.86845  0.79419  0.43338  Biso   1.000  C
  H246     1.0000 0.91047  0.85849  0.48529  Biso   1.000  H
  C300     1.0000 0.74623  0.78658  0.83439  Biso   1.000  C
  H247     1.0000 0.13033  0.89650  0.81681  Biso   1.000  H
  C301     1.0000 0.14385  0.94557  0.88348  Biso   1.000  C
  H248     1.0000 0.18314  0.00522  0.94088  Biso   1.000  H
  H249     1.0000 0.52942  0.13173  0.87588  Biso   1.000  H
  C302     1.0000 0.42680  0.17231  0.86321  Biso   1.000  C
  H250     1.0000 0.31542  0.19120  0.85050  Biso   1.000  H
  H251     1.0000 0.02036  0.94708  0.67211  Biso   1.000  H
  C303     1.0000 0.93543  0.88898  0.66720  Biso   1.000  C
  H252     1.0000 0.86254  0.82030  0.64800  Biso   1.000  H
  H253     1.0000 0.94958  0.66698  0.43699  Biso   1.000  H
  C304     1.0000 0.88139  0.73548  0.41949  Biso   1.000  C
  H254     1.0000 0.82684  0.81530  0.41478  Biso   1.000  H
  N30      1.0000 0.70764  0.77278  0.86827  Biso   1.000  N
  H255     1.0000 0.72906  0.81619  0.80980  Biso   1.000  H
  C305     1.0000 0.07351  0.92867  0.89907  Biso   1.000  C
  H256     1.0000 0.44472  0.21094  0.86879  Biso   1.000  H
  C306     1.0000 0.89877  0.91278  0.70889  Biso   1.000  C
  H257     1.0000 0.84854  0.71760  0.39118  Biso   1.000  H
  C307     1.0000 0.63435  0.80530  0.86570  Biso   1.000  C
  C308     1.0000 0.03494  0.96836  0.92698  Biso   1.000  C
  C309     1.0000 0.04162  0.87168  0.88989  Biso   1.000  C
  C310     1.0000 0.93935  0.92796  0.75730  Biso   1.000  C
  C311     1.0000 0.81947  0.91597  0.70030  Biso   1.000  C
  H258     1.0000 0.62644  0.83278  0.83621  Biso   1.000  H
  H259     1.0000 0.59244  0.77729  0.85949  Biso   1.000  H
  C312     1.0000 0.63382  0.83858  0.91550  Biso   1.000  C
  C313     1.0000 0.97025  0.95270  0.94520  Biso   1.000  C
  H260     1.0000 0.05395  0.00673  0.93340  Biso   1.000  H
  H261     1.0000 0.06501  0.84446  0.87148  Biso   1.000  H
  C314     1.0000 0.97785  0.85468  0.90711  Biso   1.000  C
  C315     1.0000 0.90173  0.94619  0.79749  Biso   1.000  C
  H262     1.0000 0.99233  0.92650  0.76419  Biso   1.000  H
  H263     1.0000 0.79054  0.90517  0.66748  Biso   1.000  H
  C316     1.0000 0.78336  0.93447  0.73850  Biso   1.000  C
  N31      1.0000 0.67931  0.89389  0.91958  Biso   1.000  N
  H264     1.0000 0.58162  0.84840  0.91689  Biso   1.000  H
  H265     1.0000 0.65422  0.81358  0.94559  Biso   1.000  H
  H266     1.0000 0.94652  0.97987  0.96341  Biso   1.000  H
  C317     1.0000 0.94061  0.89446  0.93569  Biso   1.000  C
  H267     1.0000 0.95866  0.81667  0.89991  Biso   1.000  H
  C318     1.0000 0.82397  0.94960  0.78830  Biso   1.000  C
  H268     1.0000 0.93035  0.95588  0.83078  Biso   1.000  H
  H269     1.0000 0.73047  0.93708  0.73098  Biso   1.000  H
  C319     1.0000 0.70502  0.91256  0.97520  Biso   1.000  C
  C320     1.0000 0.63352  0.94048  0.88831  Biso   1.000  C
  C321     1.0000 0.87312  0.87548  0.95391  Biso   1.000  C
  C322     1.0000 0.78603  0.96739  0.83110  Biso   1.000  C
  H270     1.0000 0.66465  0.90539  0.99421  Biso   1.000  H
  H271     1.0000 0.71562  0.95469  0.97651  Biso   1.000  H
  C323     1.0000 0.77511  0.87986  0.00169  Biso   1.000  C
  H272     1.0000 0.60053  0.95836  0.90921  Biso   1.000  H
  H273     1.0000 0.60147  0.92296  0.85711  Biso   1.000  H
  C324     1.0000 0.68281  0.98739  0.87148  Biso   1.000  C
  N32      1.0000 0.84282  0.90508  0.98550  Biso   1.000  N
  H274     1.0000 0.85104  0.83946  0.94159  Biso   1.000  H
  N33      1.0000 0.71477  0.96867  0.82568  Biso   1.000  N
  H275     1.0000 0.81614  0.97810  0.86360  Biso   1.000  H
  H276     1.0000 0.77002  0.83840  0.99191  Biso   1.000  H
  H277     1.0000 0.78128  0.88269  0.03978  Biso   1.000  H
  H278     1.0000 0.72444  0.99668  0.90097  Biso   1.000  H
  H279     1.0000 0.65293  0.02310  0.86230  Biso   1.000  H
  N34      1.0000 0.38314  0.40630  0.42606  Biso   1.000  N
  C325     1.0000 0.34535  0.40227  0.47099  Biso   1.000  C
  C326     1.0000 0.44047  0.37351  0.42911  Biso   1.000  C
  C327     1.0000 0.26507  0.37701  0.45021  Biso   1.000  C
  H280     1.0000 0.37416  0.37670  0.49811  Biso   1.000  H
  H281     1.0000 0.34205  0.44117  0.48620  Biso   1.000  H
  H282     1.0000 0.45455  0.34798  0.45781  Biso   1.000  H
  C328     1.0000 0.48645  0.37488  0.38691  Biso   1.000  C
  N35      1.0000 0.26666  0.31417  0.44170  Biso   1.000  N
  H283     1.0000 0.24227  0.39630  0.41719  Biso   1.000  H
  H284     1.0000 0.23357  0.38528  0.47551  Biso   1.000  H
  C329     1.0000 0.46448  0.41289  0.34431  Biso   1.000  C
  C330     1.0000 0.55254  0.34218  0.39071  Biso   1.000  C
  C331     1.0000 0.20118  0.29647  0.40120  Biso   1.000  C
  C332     1.0000 0.26973  0.28010  0.48940  Biso   1.000  C
  H285     1.0000 0.42037  0.43528  0.34150  Biso   1.000  H
  C333     1.0000 0.50673  0.41767  0.30618  Biso   1.000  C
  C334     1.0000 0.59436  0.34608  0.35151  Biso   1.000  C
  H286     1.0000 0.56893  0.31749  0.41969  Biso   1.000  H
  C335     1.0000 0.21205  0.30630  0.34470  Biso   1.000  C
  H287     1.0000 0.19104  0.25479  0.40579  Biso   1.000  H
  H288     1.0000 0.15685  0.31860  0.40611  Biso   1.000  H
  C336     1.0000 0.29995  0.21842  0.48798  Biso   1.000  C
  H289     1.0000 0.30137  0.30099  0.51870  Biso   1.000  H
  H290     1.0000 0.21876  0.27789  0.49629  Biso   1.000  H
  H291     1.0000 0.49105  0.44307  0.27768  Biso   1.000  H
  C337     1.0000 0.57347  0.38480  0.31010  Biso   1.000  C
  H292     1.0000 0.63704  0.32218  0.35330  Biso   1.000  H
  N36      1.0000 0.26074  0.26090  0.32958  Biso   1.000  N
  H293     1.0000 0.23476  0.34488  0.34221  Biso   1.000  H
  H294     1.0000 0.16275  0.30568  0.32040  Biso   1.000  H
  N37      1.0000 0.38297  0.21979  0.49099  Biso   1.000  N
  H295     1.0000 0.27484  0.19899  0.45559  Biso   1.000  H
  H296     1.0000 0.28928  0.19589  0.51759  Biso   1.000  H
  C338     1.0000 0.62168  0.39360  0.26901  Biso   1.000  C
  C339     1.0000 0.32135  0.27691  0.31608  Biso   1.000  C
  C340     1.0000 0.40834  0.20089  0.45251  Biso   1.000  C
  C341     1.0000 0.63276  0.44931  0.25060  Biso   1.000  C
  C342     1.0000 0.65705  0.34528  0.24910  Biso   1.000  C
  H297     1.0000 0.33256  0.31718  0.31759  Biso   1.000  H
  C343     1.0000 0.37525  0.23709  0.29831  Biso   1.000  C
  C344     1.0000 0.49063  0.19970  0.45128  Biso   1.000  C
  H298     1.0000 0.37376  0.18691  0.42309  Biso   1.000  H
  H299     1.0000 0.60907  0.48157  0.26272  Biso   1.000  H
  C345     1.0000 0.67889  0.45821  0.21442  Biso   1.000  C
  C346     1.0000 0.69877  0.35448  0.21232  Biso   1.000  C
  H300     1.0000 0.65159  0.30718  0.26141  Biso   1.000  H
  C347     1.0000 0.43796  0.26001  0.28291  Biso   1.000  C
  C348     1.0000 0.36238  0.17660  0.29648  Biso   1.000  C
  C349     1.0000 0.51537  0.17341  0.40999  Biso   1.000  C
  C350     1.0000 0.54484  0.22328  0.49431  Biso   1.000  C
  H301     1.0000 0.68657  0.49631  0.20301  Biso   1.000  H
  C351     1.0000 0.71354  0.41020  0.19510  Biso   1.000  C
  H302     1.0000 0.71849  0.32187  0.19779  Biso   1.000  H
  H303     1.0000 0.44728  0.30050  0.28461  Biso   1.000  H
  C352     1.0000 0.48788  0.22151  0.26450  Biso   1.000  C
  C353     1.0000 0.41317  0.14040  0.27819  Biso   1.000  C
  H304     1.0000 0.32029  0.16072  0.30729  Biso   1.000  H
  C354     1.0000 0.59228  0.17288  0.40959  Biso   1.000  C
  H305     1.0000 0.48045  0.15598  0.38239  Biso   1.000  H
  H306     1.0000 0.52926  0.24028  0.52302  Biso   1.000  H
  C355     1.0000 0.62043  0.22058  0.49269  Biso   1.000  C
  N38      1.0000 0.75736  0.41971  0.15551  Biso   1.000  N
  H307     1.0000 0.53036  0.23718  0.25408  Biso   1.000  H
  C356     1.0000 0.47635  0.16111  0.26141  Biso   1.000  C
  H308     1.0000 0.40437  0.09978  0.27728  Biso   1.000  H
  C357     1.0000 0.64786  0.19541  0.45108  Biso   1.000  C
  H309     1.0000 0.60766  0.15691  0.38041  Biso   1.000  H
  H310     1.0000 0.65556  0.23638  0.52100  Biso   1.000  H
  C358     1.0000 0.73247  0.45971  0.11485  Biso   1.000  C
  C359     1.0000 0.82696  0.38878  0.16022  Biso   1.000  C
  C360     1.0000 0.52798  0.12200  0.23908  Biso   1.000  C
  C361     1.0000 0.73014  0.19408  0.45148  Biso   1.000  C
  C362     1.0000 0.65617  0.45560  0.08939  Biso   1.000  C
  C363     1.0000 0.77960  0.50100  0.09790  Biso   1.000  C
  C364     1.0000 0.85235  0.37400  0.11410  Biso   1.000  C
  C365     1.0000 0.87258  0.37409  0.20800  Biso   1.000  C
  C366     1.0000 0.55895  0.13801  0.19609  Biso   1.000  C
  C367     1.0000 0.54167  0.06350  0.25808  Biso   1.000  C
  C368     1.0000 0.75627  0.19160  0.40448  Biso   1.000  C
  C369     1.0000 0.78536  0.19342  0.49819  Biso   1.000  C
  H311     1.0000 0.62469  0.42798  0.10079  Biso   1.000  H
  C370     1.0000 0.62716  0.49259  0.04711  Biso   1.000  C
  C371     1.0000 0.75061  0.53799  0.05550  Biso   1.000  C
  H312     1.0000 0.83069  0.50369  0.11489  Biso   1.000  H
  H313     1.0000 0.82299  0.38457  0.08132  Biso   1.000  H
  C372     1.0000 0.92100  0.34369  0.11639  Biso   1.000  C
  C373     1.0000 0.94135  0.34338  0.21089  Biso   1.000  C
  H314     1.0000 0.85778  0.38471  0.23908  Biso   1.000  H
  H315     1.0000 0.55126  0.17620  0.18270  Biso   1.000  H
  C374     1.0000 0.59989  0.09952  0.17289  Biso   1.000  C
  C375     1.0000 0.58378  0.02580  0.23469  Biso   1.000  C
  H316     1.0000 0.52174  0.05071  0.28659  Biso   1.000  H
  C376     1.0000 0.83413  0.18788  0.40500  Biso   1.000  C
  H317     1.0000 0.72135  0.19240  0.37230  Biso   1.000  H
  H318     1.0000 0.76992  0.19519  0.53030  Biso   1.000  H
  C377     1.0000 0.85883  0.19027  0.49839  Biso   1.000  C
  H319     1.0000 0.57609  0.48989  0.03001  Biso   1.000  H
  C378     1.0000 0.67427  0.53387  0.03009  Biso   1.000  C
  H320     1.0000 0.78206  0.56560  0.04418  Biso   1.000  H
  H321     1.0000 0.93579  0.33351  0.08512  Biso   1.000  H
  C379     1.0000 0.96716  0.32869  0.16449  Biso   1.000  C
  H322     1.0000 0.97028  0.33258  0.24371  Biso   1.000  H
  H323     1.0000 0.61909  0.11239  0.14418  Biso   1.000  H
  C380     1.0000 0.61406  0.04230  0.19019  Biso   1.000  C
  H324     1.0000 0.59307  0.98779  0.24838  Biso   1.000  H
  C381     1.0000 0.88773  0.18691  0.45171  Biso   1.000  C
  H325     1.0000 0.85005  0.18620  0.37301  Biso   1.000  H
  H326     1.0000 0.89323  0.19050  0.53089  Biso   1.000  H
  H327     1.0000 0.65477  0.55870  0.00170  Biso   1.000  H
  C382     1.0000 0.04158  0.29838  0.16691  Biso   1.000  C
  N39      1.0000 0.65409  0.00190  0.16564  Biso   1.000  N
  N40      1.0000 0.96604  0.18350  0.45409  Biso   1.000  N
  C383     1.0000 0.08647  0.31528  0.13120  Biso   1.000  C
  C384     1.0000 0.06917  0.25590  0.20250  Biso   1.000  C
  C385     1.0000 0.72167  0.02080  0.14901  Biso   1.000  C
  C386     1.0000 0.62618  0.94358  0.15578  Biso   1.000  C
  C387     1.0000 0.99822  0.15961  0.41288  Biso   1.000  C
  C388     1.0000 0.01795  0.21169  0.49689  Biso   1.000  C
  H328     1.0000 0.06970  0.34541  0.10701  Biso   1.000  H
  C389     1.0000 0.15497  0.28829  0.13140  Biso   1.000  C
  C390     1.0000 0.13688  0.22669  0.20301  Biso   1.000  C
  H329     1.0000 0.04139  0.24581  0.22772  Biso   1.000  H
  C391     1.0000 0.77056  0.06071  0.17748  Biso   1.000  C
  C392     1.0000 0.73879  0.99761  0.10281  Biso   1.000  C
  C393     1.0000 0.54756  0.93239  0.14319  Biso   1.000  C
  C394     1.0000 0.67599  0.89610  0.15939  Biso   1.000  C
  C395     1.0000 0.96636  0.10770  0.38600  Biso   1.000  C
  C396     1.0000 0.05842  0.18709  0.39859  Biso   1.000  C
  C397     1.0000 0.00893  0.26970  0.50920  Biso   1.000  C
  C398     1.0000 0.08122  0.18010  0.52460  Biso   1.000  C
  H330     1.0000 0.18335  0.30059  0.10721  Biso   1.000  H
  C399     1.0000 0.18286  0.24351  0.16612  Biso   1.000  C
  H331     1.0000 0.15265  0.19638  0.22720  Biso   1.000  H
  H332     1.0000 0.75895  0.07730  0.20788  Biso   1.000  H
  C400     1.0000 0.83676  0.07691  0.16240  Biso   1.000  C
  C401     1.0000 0.80489  0.01279  0.08868  Biso   1.000  C
  H333     1.0000 0.70497  0.97168  0.08179  Biso   1.000  H
  H334     1.0000 0.51280  0.96318  0.14161  Biso   1.000  H
  C402     1.0000 0.52257  0.87548  0.13342  Biso   1.000  C
  C403     1.0000 0.64978  0.83959  0.14870  Biso   1.000  C
  H335     1.0000 0.72825  0.90278  0.16940  Biso   1.000  H
  H336     1.0000 0.92436  0.08890  0.39451  Biso   1.000  H
  C404     1.0000 0.00073  0.08620  0.34649  Biso   1.000  C
  H337     1.0000 0.07643  0.22271  0.41458  Biso   1.000  H
  C405     1.0000 0.09417  0.16200  0.35959  Biso   1.000  C
  H338     1.0000 0.97024  0.29231  0.48901  Biso   1.000  H
  C406     1.0000 0.05883  0.29448  0.55291  Biso   1.000  C
  C407     1.0000 0.13144  0.20581  0.56660  Biso   1.000  C
  H339     1.0000 0.08941  0.14151  0.51470  Biso   1.000  H
  C408     1.0000 0.25366  0.21342  0.16560  Biso   1.000  C
  H340     1.0000 0.86956  0.10350  0.18318  Biso   1.000  H
  C409     1.0000 0.85610  0.05438  0.11651  Biso   1.000  C
  H341     1.0000 0.81680  0.99478  0.05911  Biso   1.000  H
  H342     1.0000 0.47047  0.86831  0.12411  Biso   1.000  H
  C410     1.0000 0.57309  0.82769  0.13678  Biso   1.000  C
  H343     1.0000 0.68447  0.80875  0.14949  Biso   1.000  H
  H344     1.0000 0.97952  0.05288  0.32788  Biso   1.000  H
  C411     1.0000 0.06445  0.11098  0.33279  Biso   1.000  C
  H345     1.0000 0.13734  0.17970  0.35199  Biso   1.000  H
  H346     1.0000 0.05036  0.33298  0.56300  Biso   1.000  H
  C412     1.0000 0.11855  0.26448  0.58050  Biso   1.000  C
  H347     1.0000 0.17304  0.18470  0.58521  Biso   1.000  H
  N41      1.0000 0.29224  0.22718  0.13171  Biso   1.000  N
  H348     1.0000 0.27083  0.18381  0.19019  Biso   1.000  H
  C413     1.0000 0.92638  0.07129  0.10091  Biso   1.000  C
  H349     1.0000 0.55517  0.78911  0.13120  Biso   1.000  H
  C414     1.0000 0.10117  0.08722  0.29110  Biso   1.000  C
  H350     1.0000 0.15134  0.28240  0.60881  Biso   1.000  H
  C415     1.0000 0.36554  0.19470  0.13429  Biso   1.000  C
  C416     1.0000 0.96500  0.03159  0.07300  Biso   1.000  C
  C417     1.0000 0.95827  0.12828  0.11010  Biso   1.000  C
  C418     1.0000 0.06054  0.07199  0.24268  Biso   1.000  C
  C419     1.0000 0.18048  0.08399  0.29969  Biso   1.000  C
  C420     1.0000 0.36607  0.16138  0.08448  Biso   1.000  C
  H351     1.0000 0.37344  0.16718  0.16378  Biso   1.000  H
  H352     1.0000 0.40745  0.22271  0.14050  Biso   1.000  H
  H353     1.0000 0.94599  0.99332  0.06659  Biso   1.000  H
  C421     1.0000 0.02969  0.04730  0.05479  Biso   1.000  C
  H354     1.0000 0.93488  0.15549  0.12851  Biso   1.000  H
  C422     1.0000 0.02205  0.14532  0.09292  Biso   1.000  C
  C423     1.0000 0.09816  0.05381  0.20250  Biso   1.000  C
  H355     1.0000 0.00756  0.07350  0.23579  Biso   1.000  H
  H356     1.0000 0.20935  0.09478  0.33251  Biso   1.000  H
  C424     1.0000 0.21652  0.06549  0.26149  Biso   1.000  C
  N42      1.0000 0.32058  0.10611  0.08045  Biso   1.000  N
  H357     1.0000 0.41826  0.15160  0.08310  Biso   1.000  H
  H358     1.0000 0.34566  0.18638  0.05440  Biso   1.000  H
  H359     1.0000 0.05337  0.02009  0.03658  Biso   1.000  H
  C425     1.0000 0.05928  0.10549  0.06429  Biso   1.000  C
  H360     1.0000 0.04128  0.18328  0.10008  Biso   1.000  H
  C426     1.0000 0.17597  0.05040  0.21168  Biso   1.000  C
  H361     1.0000 0.06959  0.04412  0.16920  Biso   1.000  H
  H362     1.0000 0.26947  0.06288  0.26901  Biso   1.000  H
  C427     1.0000 0.29486  0.08739  0.02478  Biso   1.000  C
  C428     1.0000 0.36636  0.05952  0.11168  Biso   1.000  C
  C429     1.0000 0.12676  0.12452  0.04608  Biso   1.000  C
  C430     1.0000 0.21386  0.03261  0.16889  Biso   1.000  C
  C431     1.0000 0.22483  0.12009  0.99830  Biso   1.000  C
  H363     1.0000 0.33525  0.09461  0.00582  Biso   1.000  H
  H364     1.0000 0.28428  0.04531  0.02352  Biso   1.000  H
  H365     1.0000 0.39937  0.04159  0.09082  Biso   1.000  H
  H366     1.0000 0.39848  0.07699  0.14292  Biso   1.000  H
  C432     1.0000 0.31707  0.01261  0.12851  Biso   1.000  C
  N43      1.0000 0.15707  0.09492  0.01449  Biso   1.000  N
  H367     1.0000 0.14884  0.16049  0.05839  Biso   1.000  H
  N44      1.0000 0.28518  0.03128  0.17431  Biso   1.000  N
  H368     1.0000 0.18375  0.02190  0.13639  Biso   1.000  H
  H369     1.0000 0.21861  0.11731  0.96021  Biso   1.000  H
  H370     1.0000 0.22988  0.16160  0.00812  Biso   1.000  H
  H371     1.0000 0.34695  0.97690  0.13769  Biso   1.000  H
  H372     1.0000 0.27545  0.00332  0.09901  Biso   1.000  H
