data_image0
_cell_length_a       24.607
_cell_length_b       24.607
_cell_length_c       24.607
_cell_angle_alpha    90
_cell_angle_beta     90
_cell_angle_gamma    90

_symmetry_space_group_name_H-M    "P 1"
_symmetry_int_tables_number       1

loop_
  _symmetry_equiv_pos_as_xyz
  'x, y, z'

loop_
  _atom_site_label
  _atom_site_occupancy
  _atom_site_fract_x
  _atom_site_fract_y
  _atom_site_fract_z
  _atom_site_thermal_displace_type
  _atom_site_B_iso_or_equiv
  _atom_site_type_symbol
  C1       1.0000 0.37721  0.27960  0.24070  Biso   1.000  C
  C2       1.0000 0.37721  0.22038  0.25932  Biso   1.000  C
  C3       1.0000 0.42541  0.29219  0.20551  Biso   1.000  C
  H1       1.0000 0.34340  0.28711  0.22018  Biso   1.000  H
  H2       1.0000 0.37770  0.30361  0.27301  Biso   1.000  H
  C4       1.0000 0.42541  0.20779  0.29451  Biso   1.000  C
  H3       1.0000 0.34340  0.21291  0.27980  Biso   1.000  H
  H4       1.0000 0.37770  0.19641  0.22701  Biso   1.000  H
  C5       1.0000 0.47702  0.27760  0.23879  Biso   1.000  C
  H5       1.0000 0.42569  0.33121  0.19559  Biso   1.000  H
  H6       1.0000 0.42399  0.27049  0.17170  Biso   1.000  H
  C6       1.0000 0.47702  0.22242  0.26119  Biso   1.000  C
  H7       1.0000 0.42569  0.16881  0.30438  Biso   1.000  H
  H8       1.0000 0.42399  0.22949  0.32828  Biso   1.000  H
  H9       1.0000 0.47881  0.30341  0.27009  Biso   1.000  H
  N1       1.0000 0.52489  0.28760  0.20490  Biso   1.000  N
  H10      1.0000 0.47881  0.19661  0.22989  Biso   1.000  H
  N2       1.0000 0.52489  0.21242  0.29512  Biso   1.000  N
  C7       1.0000 0.55431  0.32670  0.21571  Biso   1.000  C
  C8       1.0000 0.55431  0.17328  0.28431  Biso   1.000  C
  C9       1.0000 0.60410  0.33820  0.18101  Biso   1.000  C
  H11      1.0000 0.54590  0.34962  0.24558  Biso   1.000  H
  C10      1.0000 0.60410  0.16178  0.31901  Biso   1.000  C
  H12      1.0000 0.54590  0.15040  0.25440  Biso   1.000  H
  C11      1.0000 0.63571  0.38282  0.19218  Biso   1.000  C
  C12      1.0000 0.61718  0.30780  0.13569  Biso   1.000  C
  C13      1.0000 0.61718  0.19218  0.36429  Biso   1.000  C
  C14      1.0000 0.63571  0.11720  0.30780  Biso   1.000  C
  H13      1.0000 0.62600  0.40541  0.22189  Biso   1.000  H
  C15      1.0000 0.68099  0.39590  0.16178  Biso   1.000  C
  H14      1.0000 0.59459  0.27809  0.12598  Biso   1.000  H
  C16      1.0000 0.66180  0.31901  0.10412  Biso   1.000  C
  C17      1.0000 0.66180  0.18101  0.39590  Biso   1.000  C
  H15      1.0000 0.59459  0.22189  0.37400  Biso   1.000  H
  H16      1.0000 0.62600  0.09461  0.27809  Biso   1.000  H
  C18      1.0000 0.68099  0.10412  0.33820  Biso   1.000  C
  C19      1.0000 0.71569  0.44569  0.17328  Biso   1.000  C
  C20      1.0000 0.69220  0.36429  0.11720  Biso   1.000  C
  C21      1.0000 0.67330  0.28431  0.05429  Biso   1.000  C
  C22      1.0000 0.69220  0.13569  0.38282  Biso   1.000  C
  C23      1.0000 0.67330  0.21571  0.44569  Biso   1.000  C
  C24      1.0000 0.71569  0.05429  0.32670  Biso   1.000  C
  H17      1.0000 0.74560  0.45410  0.15040  Biso   1.000  H
  N3       1.0000 0.70488  0.47511  0.21242  Biso   1.000  N
  H18      1.0000 0.72191  0.37400  0.09461  Biso   1.000  H
  H19      1.0000 0.65038  0.25440  0.04588  Biso   1.000  H
  N4       1.0000 0.71240  0.29512  0.02491  Biso   1.000  N
  H20      1.0000 0.72191  0.12598  0.40541  Biso   1.000  H
  H21      1.0000 0.65038  0.24558  0.45410  Biso   1.000  H
  N5       1.0000 0.71240  0.20490  0.47511  Biso   1.000  N
  H22      1.0000 0.74560  0.04588  0.34962  Biso   1.000  H
  N6       1.0000 0.70488  0.02491  0.28760  Biso   1.000  N
  C25      1.0000 0.73881  0.52298  0.22242  Biso   1.000  C
  C26      1.0000 0.72240  0.26119  0.97700  Biso   1.000  C
  C27      1.0000 0.72240  0.23879  0.52298  Biso   1.000  C
  C28      1.0000 0.73881  0.97700  0.27760  Biso   1.000  C
  C29      1.0000 0.76121  0.52298  0.27760  Biso   1.000  C
  H23      1.0000 0.77011  0.52119  0.19661  Biso   1.000  H
  C30      1.0000 0.70549  0.57459  0.20779  Biso   1.000  C
  C31      1.0000 0.77758  0.23879  0.97700  Biso   1.000  C
  H24      1.0000 0.69659  0.22989  0.97879  Biso   1.000  H
  C32      1.0000 0.70781  0.29451  0.92539  Biso   1.000  C
  C33      1.0000 0.77758  0.26119  0.52298  Biso   1.000  C
  H25      1.0000 0.69659  0.27009  0.52119  Biso   1.000  H
  C34      1.0000 0.70781  0.20551  0.57459  Biso   1.000  C
  H26      1.0000 0.77011  0.97879  0.30341  Biso   1.000  H
  C35      1.0000 0.70549  0.92539  0.29219  Biso   1.000  C
  C36      1.0000 0.76121  0.97700  0.22242  Biso   1.000  C
  H27      1.0000 0.72991  0.52119  0.30341  Biso   1.000  H
  C37      1.0000 0.79449  0.57459  0.29219  Biso   1.000  C
  N7       1.0000 0.79510  0.47511  0.28760  Biso   1.000  N
  H28      1.0000 0.69562  0.57431  0.16881  Biso   1.000  H
  H29      1.0000 0.67172  0.57601  0.22949  Biso   1.000  H
  C38      1.0000 0.74068  0.62279  0.22038  Biso   1.000  C
  N8       1.0000 0.78758  0.20490  0.02491  Biso   1.000  N
  H30      1.0000 0.80339  0.27009  0.97879  Biso   1.000  H
  C39      1.0000 0.79221  0.20551  0.92539  Biso   1.000  C
  H31      1.0000 0.66879  0.30438  0.92571  Biso   1.000  H
  H32      1.0000 0.72951  0.32828  0.92401  Biso   1.000  H
  C40      1.0000 0.72040  0.25932  0.87719  Biso   1.000  C
  H33      1.0000 0.80339  0.22989  0.52119  Biso   1.000  H
  C41      1.0000 0.79221  0.29451  0.57459  Biso   1.000  C
  N9       1.0000 0.78758  0.29512  0.47511  Biso   1.000  N
  H34      1.0000 0.66879  0.19559  0.57431  Biso   1.000  H
  H35      1.0000 0.72951  0.17170  0.57601  Biso   1.000  H
  C42      1.0000 0.72040  0.24070  0.62279  Biso   1.000  C
  H36      1.0000 0.69562  0.92571  0.33121  Biso   1.000  H
  H37      1.0000 0.67172  0.92401  0.27049  Biso   1.000  H
  C43      1.0000 0.74068  0.87719  0.27960  Biso   1.000  C
  N10      1.0000 0.79510  0.02491  0.21242  Biso   1.000  N
  H38      1.0000 0.72991  0.97879  0.19661  Biso   1.000  H
  C44      1.0000 0.79449  0.92539  0.20779  Biso   1.000  C
  H39      1.0000 0.80441  0.57431  0.33121  Biso   1.000  H
  H40      1.0000 0.82830  0.57601  0.27049  Biso   1.000  H
  C45      1.0000 0.75930  0.62279  0.27960  Biso   1.000  C
  C46      1.0000 0.78429  0.44569  0.32670  Biso   1.000  C
  H41      1.0000 0.72020  0.65660  0.21291  Biso   1.000  H
  H42      1.0000 0.77299  0.62230  0.19641  Biso   1.000  H
  C47      1.0000 0.82672  0.21571  0.05429  Biso   1.000  C
  H43      1.0000 0.83119  0.19559  0.92571  Biso   1.000  H
  H44      1.0000 0.77051  0.17170  0.92401  Biso   1.000  H
  C48      1.0000 0.77962  0.24070  0.87719  Biso   1.000  C
  H45      1.0000 0.71289  0.27980  0.84342  Biso   1.000  H
  H46      1.0000 0.69639  0.22701  0.87772  Biso   1.000  H
  H47      1.0000 0.83119  0.30438  0.57431  Biso   1.000  H
  H48      1.0000 0.77051  0.32828  0.57601  Biso   1.000  H
  C49      1.0000 0.77962  0.25932  0.62279  Biso   1.000  C
  C50      1.0000 0.82672  0.28431  0.44569  Biso   1.000  C
  H49      1.0000 0.71289  0.22018  0.65660  Biso   1.000  H
  H50      1.0000 0.69639  0.27301  0.62230  Biso   1.000  H
  H51      1.0000 0.72020  0.84342  0.28711  Biso   1.000  H
  H52      1.0000 0.77299  0.87772  0.30361  Biso   1.000  H
  C51      1.0000 0.75930  0.87719  0.22038  Biso   1.000  C
  C52      1.0000 0.78429  0.05429  0.17328  Biso   1.000  C
  H53      1.0000 0.80441  0.92571  0.16881  Biso   1.000  H
  H54      1.0000 0.82830  0.92401  0.22949  Biso   1.000  H
  H55      1.0000 0.77982  0.65660  0.28711  Biso   1.000  H
  H56      1.0000 0.72699  0.62230  0.30361  Biso   1.000  H
  C53      1.0000 0.81899  0.39590  0.33820  Biso   1.000  C
  H57      1.0000 0.75442  0.45410  0.34962  Biso   1.000  H
  C54      1.0000 0.83822  0.18101  0.10412  Biso   1.000  C
  H58      1.0000 0.84960  0.24558  0.04588  Biso   1.000  H
  H59      1.0000 0.78709  0.22018  0.84342  Biso   1.000  H
  H60      1.0000 0.80359  0.27301  0.87772  Biso   1.000  H
  H61      1.0000 0.78709  0.27980  0.65660  Biso   1.000  H
  H62      1.0000 0.80359  0.22701  0.62230  Biso   1.000  H
  C55      1.0000 0.83822  0.31901  0.39590  Biso   1.000  C
  H63      1.0000 0.84960  0.25440  0.45410  Biso   1.000  H
  H64      1.0000 0.77982  0.84342  0.21291  Biso   1.000  H
  H65      1.0000 0.72699  0.87772  0.19641  Biso   1.000  H
  C56      1.0000 0.81899  0.10412  0.16178  Biso   1.000  C
  H66      1.0000 0.75442  0.04588  0.15040  Biso   1.000  H
  C57      1.0000 0.80782  0.36429  0.38282  Biso   1.000  C
  C58      1.0000 0.86431  0.38282  0.30780  Biso   1.000  C
  C59      1.0000 0.88280  0.19218  0.13569  Biso   1.000  C
  C60      1.0000 0.80782  0.13569  0.11720  Biso   1.000  C
  C61      1.0000 0.88280  0.30780  0.36429  Biso   1.000  C
  C62      1.0000 0.86431  0.11720  0.19218  Biso   1.000  C
  H67      1.0000 0.77811  0.37400  0.40541  Biso   1.000  H
  H68      1.0000 0.87402  0.40541  0.27809  Biso   1.000  H
  C63      1.0000 0.89588  0.33820  0.31901  Biso   1.000  C
  H69      1.0000 0.90539  0.22189  0.12598  Biso   1.000  H
  C64      1.0000 0.89588  0.16178  0.18101  Biso   1.000  C
  H70      1.0000 0.77811  0.12598  0.09461  Biso   1.000  H
  H71      1.0000 0.90539  0.27809  0.37400  Biso   1.000  H
  H72      1.0000 0.87402  0.09461  0.22189  Biso   1.000  H
  C65      1.0000 0.94571  0.32670  0.28431  Biso   1.000  C
  C66      1.0000 0.94571  0.17328  0.21571  Biso   1.000  C
  H73      1.0000 0.95412  0.34962  0.25440  Biso   1.000  H
  N11      1.0000 0.97509  0.28760  0.29512  Biso   1.000  N
  H74      1.0000 0.95412  0.15040  0.24558  Biso   1.000  H
  N12      1.0000 0.97509  0.21242  0.20490  Biso   1.000  N
  C67      1.0000 0.02300  0.27760  0.26119  Biso   1.000  C
  C68      1.0000 0.02300  0.22242  0.23879  Biso   1.000  C
  H75      1.0000 0.02121  0.30341  0.22989  Biso   1.000  H
  C69      1.0000 0.07461  0.29219  0.29451  Biso   1.000  C
  H76      1.0000 0.02121  0.19661  0.27009  Biso   1.000  H
  C70      1.0000 0.07461  0.20779  0.20551  Biso   1.000  C
  H77      1.0000 0.07429  0.33121  0.30438  Biso   1.000  H
  H78      1.0000 0.07599  0.27049  0.32828  Biso   1.000  H
  C71      1.0000 0.12281  0.27960  0.25932  Biso   1.000  C
  H79      1.0000 0.07429  0.16881  0.19559  Biso   1.000  H
  H80      1.0000 0.07599  0.22949  0.17170  Biso   1.000  H
  C72      1.0000 0.12281  0.22038  0.24070  Biso   1.000  C
  H81      1.0000 0.15658  0.28711  0.27980  Biso   1.000  H
  H82      1.0000 0.12228  0.30361  0.22701  Biso   1.000  H
  H83      1.0000 0.15658  0.21291  0.22018  Biso   1.000  H
  H84      1.0000 0.12228  0.19641  0.27301  Biso   1.000  H
  C73      1.0000 0.24070  0.37721  0.27960  Biso   1.000  C
  C74      1.0000 0.25932  0.37721  0.22038  Biso   1.000  C
  C75      1.0000 0.20551  0.42541  0.29219  Biso   1.000  C
  H85      1.0000 0.22018  0.34340  0.28711  Biso   1.000  H
  H86      1.0000 0.27301  0.37770  0.30361  Biso   1.000  H
  C76      1.0000 0.29451  0.42541  0.20779  Biso   1.000  C
  H87      1.0000 0.27980  0.34340  0.21291  Biso   1.000  H
  H88      1.0000 0.22701  0.37770  0.19641  Biso   1.000  H
  C77      1.0000 0.23879  0.47702  0.27760  Biso   1.000  C
  H89      1.0000 0.19559  0.42569  0.33121  Biso   1.000  H
  H90      1.0000 0.17170  0.42399  0.27049  Biso   1.000  H
  C78      1.0000 0.26119  0.47702  0.22242  Biso   1.000  C
  H91      1.0000 0.30438  0.42569  0.16881  Biso   1.000  H
  H92      1.0000 0.32828  0.42399  0.22949  Biso   1.000  H
  H93      1.0000 0.27009  0.47881  0.30341  Biso   1.000  H
  N13      1.0000 0.20490  0.52489  0.28760  Biso   1.000  N
  H94      1.0000 0.22989  0.47881  0.19661  Biso   1.000  H
  N14      1.0000 0.29512  0.52489  0.21242  Biso   1.000  N
  C79      1.0000 0.21571  0.55431  0.32670  Biso   1.000  C
  C80      1.0000 0.28431  0.55431  0.17328  Biso   1.000  C
  C81      1.0000 0.18101  0.60410  0.33820  Biso   1.000  C
  H95      1.0000 0.24558  0.54590  0.34962  Biso   1.000  H
  C82      1.0000 0.31901  0.60410  0.16178  Biso   1.000  C
  H96      1.0000 0.25440  0.54590  0.15040  Biso   1.000  H
  C83      1.0000 0.19218  0.63571  0.38282  Biso   1.000  C
  C84      1.0000 0.13569  0.61718  0.30780  Biso   1.000  C
  C85      1.0000 0.36429  0.61718  0.19218  Biso   1.000  C
  C86      1.0000 0.30780  0.63571  0.11720  Biso   1.000  C
  H97      1.0000 0.22189  0.62600  0.40541  Biso   1.000  H
  C87      1.0000 0.16178  0.68099  0.39590  Biso   1.000  C
  H98      1.0000 0.12598  0.59459  0.27809  Biso   1.000  H
  C88      1.0000 0.10412  0.66180  0.31901  Biso   1.000  C
  H99      1.0000 0.37400  0.59459  0.22189  Biso   1.000  H
  C89      1.0000 0.39590  0.66180  0.18101  Biso   1.000  C
  H100     1.0000 0.27809  0.62600  0.09461  Biso   1.000  H
  C90      1.0000 0.33820  0.68099  0.10412  Biso   1.000  C
  C91      1.0000 0.17328  0.71569  0.44569  Biso   1.000  C
  C92      1.0000 0.11720  0.69220  0.36429  Biso   1.000  C
  C93      1.0000 0.05429  0.67330  0.28431  Biso   1.000  C
  C94      1.0000 0.38282  0.69220  0.13569  Biso   1.000  C
  C95      1.0000 0.44569  0.67330  0.21571  Biso   1.000  C
  C96      1.0000 0.32670  0.71569  0.05429  Biso   1.000  C
  H101     1.0000 0.15040  0.74560  0.45410  Biso   1.000  H
  N15      1.0000 0.21242  0.70488  0.47511  Biso   1.000  N
  H102     1.0000 0.09461  0.72191  0.37400  Biso   1.000  H
  H103     1.0000 0.04588  0.65038  0.25440  Biso   1.000  H
  N16      1.0000 0.02491  0.71240  0.29512  Biso   1.000  N
  H104     1.0000 0.40541  0.72191  0.12598  Biso   1.000  H
  H105     1.0000 0.45410  0.65038  0.24558  Biso   1.000  H
  N17      1.0000 0.47511  0.71240  0.20490  Biso   1.000  N
  H106     1.0000 0.34962  0.74560  0.04588  Biso   1.000  H
  N18      1.0000 0.28760  0.70488  0.02491  Biso   1.000  N
  C97      1.0000 0.22242  0.73881  0.52298  Biso   1.000  C
  C98      1.0000 0.97700  0.72240  0.26119  Biso   1.000  C
  C99      1.0000 0.52298  0.72240  0.23879  Biso   1.000  C
  C100     1.0000 0.27760  0.73881  0.97700  Biso   1.000  C
  H107     1.0000 0.19661  0.77011  0.52119  Biso   1.000  H
  C101     1.0000 0.20779  0.70549  0.57459  Biso   1.000  C
  C102     1.0000 0.27760  0.76121  0.52298  Biso   1.000  C
  H108     1.0000 0.97879  0.69659  0.22989  Biso   1.000  H
  C103     1.0000 0.92539  0.70781  0.29451  Biso   1.000  C
  C104     1.0000 0.97700  0.77758  0.23879  Biso   1.000  C
  C105     1.0000 0.52298  0.77758  0.26119  Biso   1.000  C
  H109     1.0000 0.52119  0.69659  0.27009  Biso   1.000  H
  C106     1.0000 0.57459  0.70781  0.20551  Biso   1.000  C
  C107     1.0000 0.22242  0.76121  0.97700  Biso   1.000  C
  H110     1.0000 0.30341  0.77011  0.97879  Biso   1.000  H
  C108     1.0000 0.29219  0.70549  0.92539  Biso   1.000  C
  H111     1.0000 0.16881  0.69562  0.57431  Biso   1.000  H
  H112     1.0000 0.22949  0.67172  0.57601  Biso   1.000  H
  C109     1.0000 0.22038  0.74068  0.62279  Biso   1.000  C
  H113     1.0000 0.30341  0.72991  0.52119  Biso   1.000  H
  C110     1.0000 0.29219  0.79449  0.57459  Biso   1.000  C
  N19      1.0000 0.28760  0.79510  0.47511  Biso   1.000  N
  H114     1.0000 0.92571  0.66879  0.30438  Biso   1.000  H
  H115     1.0000 0.92401  0.72951  0.32828  Biso   1.000  H
  C111     1.0000 0.87719  0.72040  0.25932  Biso   1.000  C
  N20      1.0000 0.02491  0.78758  0.20490  Biso   1.000  N
  H116     1.0000 0.97879  0.80339  0.27009  Biso   1.000  H
  C112     1.0000 0.92539  0.79221  0.20551  Biso   1.000  C
  H117     1.0000 0.52119  0.80339  0.22989  Biso   1.000  H
  C113     1.0000 0.57459  0.79221  0.29451  Biso   1.000  C
  N21      1.0000 0.47511  0.78758  0.29512  Biso   1.000  N
  H118     1.0000 0.57431  0.66879  0.19559  Biso   1.000  H
  H119     1.0000 0.57601  0.72951  0.17170  Biso   1.000  H
  C114     1.0000 0.62279  0.72040  0.24070  Biso   1.000  C
  N22      1.0000 0.21242  0.79510  0.02491  Biso   1.000  N
  H120     1.0000 0.19661  0.72991  0.97879  Biso   1.000  H
  C115     1.0000 0.20779  0.79449  0.92539  Biso   1.000  C
  H121     1.0000 0.33121  0.69562  0.92571  Biso   1.000  H
  H122     1.0000 0.27049  0.67172  0.92401  Biso   1.000  H
  C116     1.0000 0.27960  0.74068  0.87719  Biso   1.000  C
  H123     1.0000 0.21291  0.72020  0.65660  Biso   1.000  H
  H124     1.0000 0.19641  0.77299  0.62230  Biso   1.000  H
  C117     1.0000 0.27960  0.75930  0.62279  Biso   1.000  C
  H125     1.0000 0.33121  0.80441  0.57431  Biso   1.000  H
  H126     1.0000 0.27049  0.82830  0.57601  Biso   1.000  H
  C118     1.0000 0.32670  0.78429  0.44569  Biso   1.000  C
  H127     1.0000 0.84342  0.71289  0.27980  Biso   1.000  H
  H128     1.0000 0.87772  0.69639  0.22701  Biso   1.000  H
  C119     1.0000 0.87719  0.77962  0.24070  Biso   1.000  C
  C120     1.0000 0.05429  0.82672  0.21571  Biso   1.000  C
  H129     1.0000 0.92571  0.83119  0.19559  Biso   1.000  H
  H130     1.0000 0.92401  0.77051  0.17170  Biso   1.000  H
  H131     1.0000 0.57431  0.83119  0.30438  Biso   1.000  H
  H132     1.0000 0.57601  0.77051  0.32828  Biso   1.000  H
  C121     1.0000 0.62279  0.77962  0.25932  Biso   1.000  C
  C122     1.0000 0.44569  0.82672  0.28431  Biso   1.000  C
  H133     1.0000 0.65660  0.71289  0.22018  Biso   1.000  H
  H134     1.0000 0.62230  0.69639  0.27301  Biso   1.000  H
  C123     1.0000 0.17328  0.78429  0.05429  Biso   1.000  C
  H135     1.0000 0.16881  0.80441  0.92571  Biso   1.000  H
  H136     1.0000 0.22949  0.82830  0.92401  Biso   1.000  H
  C124     1.0000 0.22038  0.75930  0.87719  Biso   1.000  C
  H137     1.0000 0.28711  0.72020  0.84342  Biso   1.000  H
  H138     1.0000 0.30361  0.77299  0.87772  Biso   1.000  H
  H139     1.0000 0.28711  0.77982  0.65660  Biso   1.000  H
  H140     1.0000 0.30361  0.72699  0.62230  Biso   1.000  H
  C125     1.0000 0.33820  0.81899  0.39590  Biso   1.000  C
  H141     1.0000 0.34962  0.75442  0.45410  Biso   1.000  H
  H142     1.0000 0.84342  0.78709  0.22018  Biso   1.000  H
  H143     1.0000 0.87772  0.80359  0.27301  Biso   1.000  H
  C126     1.0000 0.10412  0.83822  0.18101  Biso   1.000  C
  H144     1.0000 0.04588  0.84960  0.24558  Biso   1.000  H
  H145     1.0000 0.65660  0.78709  0.27980  Biso   1.000  H
  H146     1.0000 0.62230  0.80359  0.22701  Biso   1.000  H
  C127     1.0000 0.39590  0.83822  0.31901  Biso   1.000  C
  H147     1.0000 0.45410  0.84960  0.25440  Biso   1.000  H
  C128     1.0000 0.16178  0.81899  0.10412  Biso   1.000  C
  H148     1.0000 0.15040  0.75442  0.04588  Biso   1.000  H
  H149     1.0000 0.21291  0.77982  0.84342  Biso   1.000  H
  H150     1.0000 0.19641  0.72699  0.87772  Biso   1.000  H
  C129     1.0000 0.38282  0.80782  0.36429  Biso   1.000  C
  C130     1.0000 0.30780  0.86431  0.38282  Biso   1.000  C
  C131     1.0000 0.11720  0.80782  0.13569  Biso   1.000  C
  C132     1.0000 0.13569  0.88280  0.19218  Biso   1.000  C
  C133     1.0000 0.36429  0.88280  0.30780  Biso   1.000  C
  C134     1.0000 0.19218  0.86431  0.11720  Biso   1.000  C
  H151     1.0000 0.40541  0.77811  0.37400  Biso   1.000  H
  C135     1.0000 0.31901  0.89588  0.33820  Biso   1.000  C
  H152     1.0000 0.27809  0.87402  0.40541  Biso   1.000  H
  H153     1.0000 0.09461  0.77811  0.12598  Biso   1.000  H
  C136     1.0000 0.18101  0.89588  0.16178  Biso   1.000  C
  H154     1.0000 0.12598  0.90539  0.22189  Biso   1.000  H
  H155     1.0000 0.37400  0.90539  0.27809  Biso   1.000  H
  H156     1.0000 0.22189  0.87402  0.09461  Biso   1.000  H
  C137     1.0000 0.28431  0.94571  0.32670  Biso   1.000  C
  C138     1.0000 0.21571  0.94571  0.17328  Biso   1.000  C
  H157     1.0000 0.25440  0.95412  0.34962  Biso   1.000  H
  N23      1.0000 0.29512  0.97509  0.28760  Biso   1.000  N
  H158     1.0000 0.24558  0.95412  0.15040  Biso   1.000  H
  N24      1.0000 0.20490  0.97509  0.21242  Biso   1.000  N
  C139     1.0000 0.26119  0.02300  0.27760  Biso   1.000  C
  C140     1.0000 0.23879  0.02300  0.22242  Biso   1.000  C
  H159     1.0000 0.22989  0.02121  0.30341  Biso   1.000  H
  C141     1.0000 0.29451  0.07461  0.29219  Biso   1.000  C
  H160     1.0000 0.27009  0.02121  0.19661  Biso   1.000  H
  C142     1.0000 0.20551  0.07461  0.20779  Biso   1.000  C
  H161     1.0000 0.30438  0.07429  0.33121  Biso   1.000  H
  H162     1.0000 0.32828  0.07599  0.27049  Biso   1.000  H
  C143     1.0000 0.25932  0.12281  0.27960  Biso   1.000  C
  H163     1.0000 0.19559  0.07429  0.16881  Biso   1.000  H
  H164     1.0000 0.17170  0.07599  0.22949  Biso   1.000  H
  C144     1.0000 0.24070  0.12281  0.22038  Biso   1.000  C
  H165     1.0000 0.27980  0.15658  0.28711  Biso   1.000  H
  H166     1.0000 0.22701  0.12228  0.30361  Biso   1.000  H
  H167     1.0000 0.22018  0.15658  0.21291  Biso   1.000  H
  H168     1.0000 0.27301  0.12228  0.19641  Biso   1.000  H
  C145     1.0000 0.27960  0.24070  0.37721  Biso   1.000  C
  C146     1.0000 0.22038  0.25932  0.37721  Biso   1.000  C
  C147     1.0000 0.29219  0.20551  0.42541  Biso   1.000  C
  H169     1.0000 0.28711  0.22018  0.34340  Biso   1.000  H
  H170     1.0000 0.30361  0.27301  0.37770  Biso   1.000  H
  C148     1.0000 0.20779  0.29451  0.42541  Biso   1.000  C
  H171     1.0000 0.21291  0.27980  0.34340  Biso   1.000  H
  H172     1.0000 0.19641  0.22701  0.37770  Biso   1.000  H
  C149     1.0000 0.27760  0.23879  0.47702  Biso   1.000  C
  H173     1.0000 0.33121  0.19559  0.42569  Biso   1.000  H
  H174     1.0000 0.27049  0.17170  0.42399  Biso   1.000  H
  C150     1.0000 0.22242  0.26119  0.47702  Biso   1.000  C
  H175     1.0000 0.16881  0.30438  0.42569  Biso   1.000  H
  H176     1.0000 0.22949  0.32828  0.42399  Biso   1.000  H
  H177     1.0000 0.30341  0.27009  0.47881  Biso   1.000  H
  N25      1.0000 0.28760  0.20490  0.52489  Biso   1.000  N
  H178     1.0000 0.19661  0.22989  0.47881  Biso   1.000  H
  N26      1.0000 0.21242  0.29512  0.52489  Biso   1.000  N
  C151     1.0000 0.32670  0.21571  0.55431  Biso   1.000  C
  C152     1.0000 0.17328  0.28431  0.55431  Biso   1.000  C
  C153     1.0000 0.33820  0.18101  0.60410  Biso   1.000  C
  H179     1.0000 0.34962  0.24558  0.54590  Biso   1.000  H
  C154     1.0000 0.16178  0.31901  0.60410  Biso   1.000  C
  H180     1.0000 0.15040  0.25440  0.54590  Biso   1.000  H
  C155     1.0000 0.30780  0.13569  0.61718  Biso   1.000  C
  C156     1.0000 0.38282  0.19218  0.63571  Biso   1.000  C
  C157     1.0000 0.19218  0.36429  0.61718  Biso   1.000  C
  C158     1.0000 0.11720  0.30780  0.63571  Biso   1.000  C
  H181     1.0000 0.27809  0.12598  0.59459  Biso   1.000  H
  C159     1.0000 0.31901  0.10412  0.66180  Biso   1.000  C
  H182     1.0000 0.40541  0.22189  0.62600  Biso   1.000  H
  C160     1.0000 0.39590  0.16178  0.68099  Biso   1.000  C
  H183     1.0000 0.22189  0.37400  0.59459  Biso   1.000  H
  C161     1.0000 0.18101  0.39590  0.66180  Biso   1.000  C
  H184     1.0000 0.09461  0.27809  0.62600  Biso   1.000  H
  C162     1.0000 0.10412  0.33820  0.68099  Biso   1.000  C
  C163     1.0000 0.36429  0.11720  0.69220  Biso   1.000  C
  C164     1.0000 0.28431  0.05429  0.67330  Biso   1.000  C
  C165     1.0000 0.44569  0.17328  0.71569  Biso   1.000  C
  C166     1.0000 0.13569  0.38282  0.69220  Biso   1.000  C
  C167     1.0000 0.21571  0.44569  0.67330  Biso   1.000  C
  C168     1.0000 0.05429  0.32670  0.71569  Biso   1.000  C
  H185     1.0000 0.37400  0.09461  0.72191  Biso   1.000  H
  H186     1.0000 0.25440  0.04588  0.65038  Biso   1.000  H
  N27      1.0000 0.29512  0.02491  0.71240  Biso   1.000  N
  H187     1.0000 0.45410  0.15040  0.74560  Biso   1.000  H
  N28      1.0000 0.47511  0.21242  0.70488  Biso   1.000  N
  H188     1.0000 0.12598  0.40541  0.72191  Biso   1.000  H
  H189     1.0000 0.24558  0.45410  0.65038  Biso   1.000  H
  N29      1.0000 0.20490  0.47511  0.71240  Biso   1.000  N
  H190     1.0000 0.04588  0.34962  0.74560  Biso   1.000  H
  N30      1.0000 0.02491  0.28760  0.70488  Biso   1.000  N
  C169     1.0000 0.26119  0.97700  0.72240  Biso   1.000  C
  C170     1.0000 0.52298  0.22242  0.73881  Biso   1.000  C
  C171     1.0000 0.23879  0.52298  0.72240  Biso   1.000  C
  C172     1.0000 0.97700  0.27760  0.73881  Biso   1.000  C
  H191     1.0000 0.22989  0.97879  0.69659  Biso   1.000  H
  C173     1.0000 0.29451  0.92539  0.70781  Biso   1.000  C
  C174     1.0000 0.23879  0.97700  0.77758  Biso   1.000  C
  H192     1.0000 0.52119  0.19661  0.77011  Biso   1.000  H
  C175     1.0000 0.57459  0.20779  0.70549  Biso   1.000  C
  C176     1.0000 0.52298  0.27760  0.76121  Biso   1.000  C
  H193     1.0000 0.27009  0.52119  0.69659  Biso   1.000  H
  C177     1.0000 0.20551  0.57459  0.70781  Biso   1.000  C
  C178     1.0000 0.26119  0.52298  0.77758  Biso   1.000  C
  H194     1.0000 0.97879  0.30341  0.77011  Biso   1.000  H
  C179     1.0000 0.92539  0.29219  0.70549  Biso   1.000  C
  C180     1.0000 0.97700  0.22242  0.76121  Biso   1.000  C
  H195     1.0000 0.30438  0.92571  0.66879  Biso   1.000  H
  H196     1.0000 0.32828  0.92401  0.72951  Biso   1.000  H
  C181     1.0000 0.25932  0.87719  0.72040  Biso   1.000  C
  N31      1.0000 0.20490  0.02491  0.78758  Biso   1.000  N
  H197     1.0000 0.27009  0.97879  0.80339  Biso   1.000  H
  C182     1.0000 0.20551  0.92539  0.79221  Biso   1.000  C
  H198     1.0000 0.57431  0.16881  0.69562  Biso   1.000  H
  H199     1.0000 0.57601  0.22949  0.67172  Biso   1.000  H
  C183     1.0000 0.62279  0.22038  0.74068  Biso   1.000  C
  H200     1.0000 0.52119  0.30341  0.72991  Biso   1.000  H
  C184     1.0000 0.57459  0.29219  0.79449  Biso   1.000  C
  N32      1.0000 0.47511  0.28760  0.79510  Biso   1.000  N
  H201     1.0000 0.19559  0.57431  0.66879  Biso   1.000  H
  H202     1.0000 0.17170  0.57601  0.72951  Biso   1.000  H
  C185     1.0000 0.24070  0.62279  0.72040  Biso   1.000  C
  H203     1.0000 0.22989  0.52119  0.80339  Biso   1.000  H
  C186     1.0000 0.29451  0.57459  0.79221  Biso   1.000  C
  N33      1.0000 0.29512  0.47511  0.78758  Biso   1.000  N
  H204     1.0000 0.92571  0.33121  0.69562  Biso   1.000  H
  H205     1.0000 0.92401  0.27049  0.67172  Biso   1.000  H
  C187     1.0000 0.87719  0.27960  0.74068  Biso   1.000  C
  N34      1.0000 0.02491  0.21242  0.79510  Biso   1.000  N
  H206     1.0000 0.97879  0.19661  0.72991  Biso   1.000  H
  C188     1.0000 0.92539  0.20779  0.79449  Biso   1.000  C
  H207     1.0000 0.27980  0.84342  0.71289  Biso   1.000  H
  H208     1.0000 0.22701  0.87772  0.69639  Biso   1.000  H
  C189     1.0000 0.24070  0.87719  0.77962  Biso   1.000  C
  C190     1.0000 0.21571  0.05429  0.82672  Biso   1.000  C
  H209     1.0000 0.19559  0.92571  0.83119  Biso   1.000  H
  H210     1.0000 0.17170  0.92401  0.77051  Biso   1.000  H
  H211     1.0000 0.65660  0.21291  0.72020  Biso   1.000  H
  H212     1.0000 0.62230  0.19641  0.77299  Biso   1.000  H
  C191     1.0000 0.62279  0.27960  0.75930  Biso   1.000  C
  H213     1.0000 0.57431  0.33121  0.80441  Biso   1.000  H
  H214     1.0000 0.57601  0.27049  0.82830  Biso   1.000  H
  C192     1.0000 0.44569  0.32670  0.78429  Biso   1.000  C
  H215     1.0000 0.22018  0.65660  0.71289  Biso   1.000  H
  H216     1.0000 0.27301  0.62230  0.69639  Biso   1.000  H
  C193     1.0000 0.25932  0.62279  0.77962  Biso   1.000  C
  H217     1.0000 0.30438  0.57431  0.83119  Biso   1.000  H
  H218     1.0000 0.32828  0.57601  0.77051  Biso   1.000  H
  C194     1.0000 0.28431  0.44569  0.82672  Biso   1.000  C
  H219     1.0000 0.84342  0.28711  0.72020  Biso   1.000  H
  H220     1.0000 0.87772  0.30361  0.77299  Biso   1.000  H
  C195     1.0000 0.87719  0.22038  0.75930  Biso   1.000  C
  C196     1.0000 0.05429  0.17328  0.78429  Biso   1.000  C
  H221     1.0000 0.92571  0.16881  0.80441  Biso   1.000  H
  H222     1.0000 0.92401  0.22949  0.82830  Biso   1.000  H
  H223     1.0000 0.22018  0.84342  0.78709  Biso   1.000  H
  H224     1.0000 0.27301  0.87772  0.80359  Biso   1.000  H
  C197     1.0000 0.18101  0.10412  0.83822  Biso   1.000  C
  H225     1.0000 0.24558  0.04588  0.84960  Biso   1.000  H
  H226     1.0000 0.65660  0.28711  0.77982  Biso   1.000  H
  H227     1.0000 0.62230  0.30361  0.72699  Biso   1.000  H
  C198     1.0000 0.39590  0.33820  0.81899  Biso   1.000  C
  H228     1.0000 0.45410  0.34962  0.75442  Biso   1.000  H
  H229     1.0000 0.27980  0.65660  0.78709  Biso   1.000  H
  H230     1.0000 0.22701  0.62230  0.80359  Biso   1.000  H
  C199     1.0000 0.31901  0.39590  0.83822  Biso   1.000  C
  H231     1.0000 0.25440  0.45410  0.84960  Biso   1.000  H
  H232     1.0000 0.84342  0.21291  0.77982  Biso   1.000  H
  H233     1.0000 0.87772  0.19641  0.72699  Biso   1.000  H
  C200     1.0000 0.10412  0.16178  0.81899  Biso   1.000  C
  H234     1.0000 0.04588  0.15040  0.75442  Biso   1.000  H
  C201     1.0000 0.13569  0.11720  0.80782  Biso   1.000  C
  C202     1.0000 0.19218  0.13569  0.88280  Biso   1.000  C
  C203     1.0000 0.36429  0.38282  0.80782  Biso   1.000  C
  C204     1.0000 0.38282  0.30780  0.86431  Biso   1.000  C
  C205     1.0000 0.30780  0.36429  0.88280  Biso   1.000  C
  C206     1.0000 0.11720  0.19218  0.86431  Biso   1.000  C
  H235     1.0000 0.12598  0.09461  0.77811  Biso   1.000  H
  H236     1.0000 0.22189  0.12598  0.90539  Biso   1.000  H
  C207     1.0000 0.16178  0.18101  0.89588  Biso   1.000  C
  H237     1.0000 0.37400  0.40541  0.77811  Biso   1.000  H
  H238     1.0000 0.40541  0.27809  0.87402  Biso   1.000  H
  C208     1.0000 0.33820  0.31901  0.89588  Biso   1.000  C
  H239     1.0000 0.27809  0.37400  0.90539  Biso   1.000  H
  H240     1.0000 0.09461  0.22189  0.87402  Biso   1.000  H
  C209     1.0000 0.17328  0.21571  0.94571  Biso   1.000  C
  C210     1.0000 0.32670  0.28431  0.94571  Biso   1.000  C
  H241     1.0000 0.15040  0.24558  0.95412  Biso   1.000  H
  N35      1.0000 0.21242  0.20490  0.97509  Biso   1.000  N
  H242     1.0000 0.34962  0.25440  0.95412  Biso   1.000  H
  N36      1.0000 0.28760  0.29512  0.97509  Biso   1.000  N
  C211     1.0000 0.22242  0.23879  0.02300  Biso   1.000  C
  C212     1.0000 0.27760  0.26119  0.02300  Biso   1.000  C
  H243     1.0000 0.19661  0.27009  0.02121  Biso   1.000  H
  C213     1.0000 0.20779  0.20551  0.07461  Biso   1.000  C
  H244     1.0000 0.30341  0.22989  0.02121  Biso   1.000  H
  C214     1.0000 0.29219  0.29451  0.07461  Biso   1.000  C
  H245     1.0000 0.16881  0.19559  0.07429  Biso   1.000  H
  H246     1.0000 0.22949  0.17170  0.07599  Biso   1.000  H
  C215     1.0000 0.22038  0.24070  0.12281  Biso   1.000  C
  H247     1.0000 0.33121  0.30438  0.07429  Biso   1.000  H
  H248     1.0000 0.27049  0.32828  0.07599  Biso   1.000  H
  C216     1.0000 0.27960  0.25932  0.12281  Biso   1.000  C
  H249     1.0000 0.21291  0.22018  0.15658  Biso   1.000  H
  H250     1.0000 0.19641  0.27301  0.12228  Biso   1.000  H
  H251     1.0000 0.28711  0.27980  0.15658  Biso   1.000  H
  H252     1.0000 0.30361  0.22701  0.12228  Biso   1.000  H
  C217     1.0000 0.44691  0.39562  0.36819  Biso   1.000  C
  H253     1.0000 0.47600  0.38940  0.34352  Biso   1.000  H
  C218     1.0000 0.43870  0.36091  0.41248  Biso   1.000  C
  C219     1.0000 0.41248  0.43870  0.36091  Biso   1.000  C
  C220     1.0000 0.39562  0.36819  0.44691  Biso   1.000  C
  C221     1.0000 0.47840  0.31540  0.42520  Biso   1.000  C
  C222     1.0000 0.36819  0.44691  0.39562  Biso   1.000  C
  C223     1.0000 0.42520  0.47840  0.31540  Biso   1.000  C
  H254     1.0000 0.38940  0.34352  0.47600  Biso   1.000  H
  C224     1.0000 0.36091  0.41248  0.43870  Biso   1.000  C
  C225     1.0000 0.53562  0.32121  0.40098  Biso   1.000  C
  N37      1.0000 0.46141  0.27630  0.45548  Biso   1.000  N
  H255     1.0000 0.34352  0.47600  0.38940  Biso   1.000  H
  C226     1.0000 0.40098  0.53562  0.32121  Biso   1.000  C
  N38      1.0000 0.45548  0.46141  0.27630  Biso   1.000  N
  C227     1.0000 0.31540  0.42520  0.47840  Biso   1.000  C
  H256     1.0000 0.56159  0.30109  0.42350  Biso   1.000  H
  H257     1.0000 0.54590  0.35961  0.40001  Biso   1.000  H
  H258     1.0000 0.53599  0.30642  0.36400  Biso   1.000  H
  C228     1.0000 0.49620  0.23099  0.47011  Biso   1.000  C
  H259     1.0000 0.42350  0.56159  0.30109  Biso   1.000  H
  H260     1.0000 0.40001  0.54590  0.35961  Biso   1.000  H
  H261     1.0000 0.36400  0.53599  0.30642  Biso   1.000  H
  C229     1.0000 0.47011  0.49620  0.23099  Biso   1.000  C
  C230     1.0000 0.32121  0.40098  0.53562  Biso   1.000  C
  N39      1.0000 0.27630  0.45548  0.46141  Biso   1.000  N
  H262     1.0000 0.53221  0.23469  0.45162  Biso   1.000  H
  C231     1.0000 0.46682  0.17922  0.44959  Biso   1.000  C
  C232     1.0000 0.50380  0.23099  0.52989  Biso   1.000  C
  H263     1.0000 0.45162  0.53221  0.23469  Biso   1.000  H
  C233     1.0000 0.44959  0.46682  0.17922  Biso   1.000  C
  C234     1.0000 0.52989  0.50380  0.23099  Biso   1.000  C
  H264     1.0000 0.30109  0.42350  0.56159  Biso   1.000  H
  H265     1.0000 0.35961  0.40001  0.54590  Biso   1.000  H
  H266     1.0000 0.30642  0.36400  0.53599  Biso   1.000  H
  C235     1.0000 0.23099  0.47011  0.49620  Biso   1.000  C
  H267     1.0000 0.46560  0.17901  0.40940  Biso   1.000  H
  H268     1.0000 0.42911  0.17828  0.46361  Biso   1.000  H
  C236     1.0000 0.49941  0.12850  0.47088  Biso   1.000  C
  H269     1.0000 0.46779  0.23469  0.54838  Biso   1.000  H
  C237     1.0000 0.53318  0.17922  0.55041  Biso   1.000  C
  N40      1.0000 0.53859  0.27630  0.54452  Biso   1.000  N
  H270     1.0000 0.40940  0.46560  0.17901  Biso   1.000  H
  H271     1.0000 0.46361  0.42911  0.17828  Biso   1.000  H
  C238     1.0000 0.47088  0.49941  0.12850  Biso   1.000  C
  H272     1.0000 0.54838  0.46779  0.23469  Biso   1.000  H
  C239     1.0000 0.55041  0.53318  0.17922  Biso   1.000  C
  N41      1.0000 0.54452  0.53859  0.27630  Biso   1.000  N
  H273     1.0000 0.23469  0.45162  0.53221  Biso   1.000  H
  C240     1.0000 0.17922  0.44959  0.46682  Biso   1.000  C
  C241     1.0000 0.23099  0.52989  0.50380  Biso   1.000  C
  H274     1.0000 0.51579  0.10172  0.44841  Biso   1.000  H
  C242     1.0000 0.50059  0.12850  0.52912  Biso   1.000  C
  H275     1.0000 0.53440  0.17901  0.59060  Biso   1.000  H
  H276     1.0000 0.57089  0.17828  0.53639  Biso   1.000  H
  C243     1.0000 0.52160  0.31540  0.57480  Biso   1.000  C
  H277     1.0000 0.44841  0.51579  0.10172  Biso   1.000  H
  C244     1.0000 0.52912  0.50059  0.12850  Biso   1.000  C
  H278     1.0000 0.59060  0.53440  0.17901  Biso   1.000  H
  H279     1.0000 0.53639  0.57089  0.17828  Biso   1.000  H
  C245     1.0000 0.57480  0.52160  0.31540  Biso   1.000  C
  H280     1.0000 0.17901  0.40940  0.46560  Biso   1.000  H
  H281     1.0000 0.17828  0.46361  0.42911  Biso   1.000  H
  C246     1.0000 0.12850  0.47088  0.49941  Biso   1.000  C
  H282     1.0000 0.23469  0.54838  0.46779  Biso   1.000  H
  C247     1.0000 0.17922  0.55041  0.53318  Biso   1.000  C
  N42      1.0000 0.27630  0.54452  0.53859  Biso   1.000  N
  H283     1.0000 0.48421  0.10172  0.55159  Biso   1.000  H
  C248     1.0000 0.56130  0.36091  0.58752  Biso   1.000  C
  C249     1.0000 0.46438  0.32121  0.59902  Biso   1.000  C
  H284     1.0000 0.55159  0.48421  0.10172  Biso   1.000  H
  C250     1.0000 0.58752  0.56130  0.36091  Biso   1.000  C
  C251     1.0000 0.59902  0.46438  0.32121  Biso   1.000  C
  H285     1.0000 0.10172  0.44841  0.51579  Biso   1.000  H
  C252     1.0000 0.12850  0.52912  0.50059  Biso   1.000  C
  H286     1.0000 0.17901  0.59060  0.53440  Biso   1.000  H
  H287     1.0000 0.17828  0.53639  0.57089  Biso   1.000  H
  C253     1.0000 0.31540  0.57480  0.52160  Biso   1.000  C
  C254     1.0000 0.55309  0.39562  0.63181  Biso   1.000  C
  C255     1.0000 0.60438  0.36819  0.55309  Biso   1.000  C
  H288     1.0000 0.43841  0.30109  0.57650  Biso   1.000  H
  H289     1.0000 0.45410  0.35961  0.59999  Biso   1.000  H
  H290     1.0000 0.46401  0.30642  0.63600  Biso   1.000  H
  C256     1.0000 0.55309  0.60438  0.36819  Biso   1.000  C
  C257     1.0000 0.63181  0.55309  0.39562  Biso   1.000  C
  H291     1.0000 0.57650  0.43841  0.30109  Biso   1.000  H
  H292     1.0000 0.59999  0.45410  0.35961  Biso   1.000  H
  H293     1.0000 0.63600  0.46401  0.30642  Biso   1.000  H
  H294     1.0000 0.10172  0.55159  0.48421  Biso   1.000  H
  C258     1.0000 0.36091  0.58752  0.56130  Biso   1.000  C
  C259     1.0000 0.32121  0.59902  0.46438  Biso   1.000  C
  H295     1.0000 0.52400  0.38940  0.65648  Biso   1.000  H
  C260     1.0000 0.58752  0.43870  0.63909  Biso   1.000  C
  H296     1.0000 0.61060  0.34352  0.52400  Biso   1.000  H
  C261     1.0000 0.63909  0.41248  0.56130  Biso   1.000  C
  H297     1.0000 0.52400  0.61060  0.34352  Biso   1.000  H
  C262     1.0000 0.56130  0.63909  0.41248  Biso   1.000  C
  H298     1.0000 0.65648  0.52400  0.38940  Biso   1.000  H
  C263     1.0000 0.63909  0.58752  0.43870  Biso   1.000  C
  C264     1.0000 0.39562  0.63181  0.55309  Biso   1.000  C
  C265     1.0000 0.36819  0.55309  0.60438  Biso   1.000  C
  H299     1.0000 0.30109  0.57650  0.43841  Biso   1.000  H
  H300     1.0000 0.35961  0.59999  0.45410  Biso   1.000  H
  H301     1.0000 0.30642  0.63600  0.46401  Biso   1.000  H
  C266     1.0000 0.63181  0.44691  0.60438  Biso   1.000  C
  C267     1.0000 0.57480  0.47840  0.68460  Biso   1.000  C
  C268     1.0000 0.68460  0.42520  0.52160  Biso   1.000  C
  C269     1.0000 0.52160  0.68460  0.42520  Biso   1.000  C
  C270     1.0000 0.60438  0.63181  0.44691  Biso   1.000  C
  C271     1.0000 0.68460  0.57480  0.47840  Biso   1.000  C
  H302     1.0000 0.38940  0.65648  0.52400  Biso   1.000  H
  C272     1.0000 0.43870  0.63909  0.58752  Biso   1.000  C
  H303     1.0000 0.34352  0.52400  0.61060  Biso   1.000  H
  C273     1.0000 0.41248  0.56130  0.63909  Biso   1.000  C
  H304     1.0000 0.65648  0.47600  0.61060  Biso   1.000  H
  C274     1.0000 0.59902  0.53562  0.67879  Biso   1.000  C
  N43      1.0000 0.54452  0.46141  0.72370  Biso   1.000  N
  C275     1.0000 0.67879  0.40098  0.46438  Biso   1.000  C
  N44      1.0000 0.72370  0.45548  0.53859  Biso   1.000  N
  C276     1.0000 0.46438  0.67879  0.40098  Biso   1.000  C
  N45      1.0000 0.53859  0.72370  0.45548  Biso   1.000  N
  H305     1.0000 0.61060  0.65648  0.47600  Biso   1.000  H
  C277     1.0000 0.67879  0.59902  0.53562  Biso   1.000  C
  N46      1.0000 0.72370  0.54452  0.46141  Biso   1.000  N
  C278     1.0000 0.44691  0.60438  0.63181  Biso   1.000  C
  C279     1.0000 0.47840  0.68460  0.57480  Biso   1.000  C
  C280     1.0000 0.42520  0.52160  0.68460  Biso   1.000  C
  H306     1.0000 0.57650  0.56159  0.69891  Biso   1.000  H
  H307     1.0000 0.59999  0.54590  0.64039  Biso   1.000  H
  H308     1.0000 0.63600  0.53599  0.69358  Biso   1.000  H
  C281     1.0000 0.52989  0.49620  0.76901  Biso   1.000  C
  H309     1.0000 0.69891  0.42350  0.43841  Biso   1.000  H
  H310     1.0000 0.64039  0.40001  0.45410  Biso   1.000  H
  H311     1.0000 0.69358  0.36400  0.46401  Biso   1.000  H
  C282     1.0000 0.76901  0.47011  0.50380  Biso   1.000  C
  H312     1.0000 0.43841  0.69891  0.42350  Biso   1.000  H
  H313     1.0000 0.45410  0.64039  0.40001  Biso   1.000  H
  H314     1.0000 0.46401  0.69358  0.36400  Biso   1.000  H
  C283     1.0000 0.50380  0.76901  0.47011  Biso   1.000  C
  H315     1.0000 0.69891  0.57650  0.56159  Biso   1.000  H
  H316     1.0000 0.64039  0.59999  0.54590  Biso   1.000  H
  H317     1.0000 0.69358  0.63600  0.53599  Biso   1.000  H
  C284     1.0000 0.76901  0.52989  0.49620  Biso   1.000  C
  H318     1.0000 0.47600  0.61060  0.65648  Biso   1.000  H
  C285     1.0000 0.53562  0.67879  0.59902  Biso   1.000  C
  N47      1.0000 0.46141  0.72370  0.54452  Biso   1.000  N
  C286     1.0000 0.40098  0.46438  0.67879  Biso   1.000  C
  N48      1.0000 0.45548  0.53859  0.72370  Biso   1.000  N
  C287     1.0000 0.47011  0.50380  0.76901  Biso   1.000  C
  H319     1.0000 0.54838  0.53221  0.76531  Biso   1.000  H
  C288     1.0000 0.55041  0.46682  0.82078  Biso   1.000  C
  H320     1.0000 0.76531  0.45162  0.46779  Biso   1.000  H
  C289     1.0000 0.82078  0.44959  0.53318  Biso   1.000  C
  C290     1.0000 0.49620  0.76901  0.52989  Biso   1.000  C
  H321     1.0000 0.46779  0.76531  0.45162  Biso   1.000  H
  C291     1.0000 0.53318  0.82078  0.44959  Biso   1.000  C
  H322     1.0000 0.76531  0.54838  0.53221  Biso   1.000  H
  C292     1.0000 0.82078  0.55041  0.46682  Biso   1.000  C
  H323     1.0000 0.56159  0.69891  0.57650  Biso   1.000  H
  H324     1.0000 0.54590  0.64039  0.59999  Biso   1.000  H
  H325     1.0000 0.53599  0.69358  0.63600  Biso   1.000  H
  H326     1.0000 0.42350  0.43841  0.69891  Biso   1.000  H
  H327     1.0000 0.40001  0.45410  0.64039  Biso   1.000  H
  H328     1.0000 0.36400  0.46401  0.69358  Biso   1.000  H
  H329     1.0000 0.45162  0.46779  0.76531  Biso   1.000  H
  C293     1.0000 0.44959  0.53318  0.82078  Biso   1.000  C
  H330     1.0000 0.59060  0.46560  0.82099  Biso   1.000  H
  H331     1.0000 0.53639  0.42911  0.82172  Biso   1.000  H
  C294     1.0000 0.52912  0.49941  0.87150  Biso   1.000  C
  H332     1.0000 0.82099  0.40940  0.53440  Biso   1.000  H
  H333     1.0000 0.82172  0.46361  0.57089  Biso   1.000  H
  C295     1.0000 0.87150  0.47088  0.50059  Biso   1.000  C
  H334     1.0000 0.53221  0.76531  0.54838  Biso   1.000  H
  C296     1.0000 0.46682  0.82078  0.55041  Biso   1.000  C
  H335     1.0000 0.53440  0.82099  0.40940  Biso   1.000  H
  H336     1.0000 0.57089  0.82172  0.46361  Biso   1.000  H
  C297     1.0000 0.50059  0.87150  0.47088  Biso   1.000  C
  H337     1.0000 0.82099  0.59060  0.46560  Biso   1.000  H
  H338     1.0000 0.82172  0.53639  0.42911  Biso   1.000  H
  C298     1.0000 0.87150  0.52912  0.49941  Biso   1.000  C
  H339     1.0000 0.40940  0.53440  0.82099  Biso   1.000  H
  H340     1.0000 0.46361  0.57089  0.82172  Biso   1.000  H
  C299     1.0000 0.47088  0.50059  0.87150  Biso   1.000  C
  H341     1.0000 0.55159  0.51579  0.89828  Biso   1.000  H
  H342     1.0000 0.89828  0.44841  0.48421  Biso   1.000  H
  H343     1.0000 0.46560  0.82099  0.59060  Biso   1.000  H
  H344     1.0000 0.42911  0.82172  0.53639  Biso   1.000  H
  C300     1.0000 0.49941  0.87150  0.52912  Biso   1.000  C
  H345     1.0000 0.48421  0.89828  0.44841  Biso   1.000  H
  H346     1.0000 0.89828  0.55159  0.51579  Biso   1.000  H
  H347     1.0000 0.44841  0.48421  0.89828  Biso   1.000  H
  H348     1.0000 0.51579  0.89828  0.55159  Biso   1.000  H
  C301     1.0000 0.44691  0.10440  0.13179  Biso   1.000  C
  C302     1.0000 0.41248  0.06128  0.13911  Biso   1.000  C
  H349     1.0000 0.47600  0.11062  0.15650  Biso   1.000  H
  C303     1.0000 0.43870  0.13911  0.08750  Biso   1.000  C
  C304     1.0000 0.36819  0.05311  0.10440  Biso   1.000  C
  C305     1.0000 0.42520  0.02162  0.18458  Biso   1.000  C
  C306     1.0000 0.39562  0.13179  0.05311  Biso   1.000  C
  C307     1.0000 0.47840  0.18458  0.07482  Biso   1.000  C
  C308     1.0000 0.36091  0.08750  0.06128  Biso   1.000  C
  H350     1.0000 0.34352  0.02402  0.11062  Biso   1.000  H
  N49      1.0000 0.45548  0.03861  0.22372  Biso   1.000  N
  C309     1.0000 0.40098  0.96440  0.17881  Biso   1.000  C
  H351     1.0000 0.38940  0.15650  0.02402  Biso   1.000  H
  C310     1.0000 0.53562  0.17881  0.09900  Biso   1.000  C
  N50      1.0000 0.46141  0.22372  0.04450  Biso   1.000  N
  C311     1.0000 0.31540  0.07482  0.02162  Biso   1.000  C
  C312     1.0000 0.47011  0.00382  0.26899  Biso   1.000  C
  H352     1.0000 0.42350  0.93839  0.19889  Biso   1.000  H
  H353     1.0000 0.40001  0.95412  0.14041  Biso   1.000  H
  H354     1.0000 0.36400  0.96399  0.19360  Biso   1.000  H
  H355     1.0000 0.56159  0.19889  0.07648  Biso   1.000  H
  H356     1.0000 0.54590  0.14041  0.10001  Biso   1.000  H
  H357     1.0000 0.53599  0.19360  0.13602  Biso   1.000  H
  C313     1.0000 0.49620  0.26899  0.02991  Biso   1.000  C
  N51      1.0000 0.27630  0.04450  0.03861  Biso   1.000  N
  C314     1.0000 0.32121  0.09900  0.96440  Biso   1.000  C
  C315     1.0000 0.44959  0.03320  0.32080  Biso   1.000  C
  H358     1.0000 0.45162  0.96781  0.26529  Biso   1.000  H
  C316     1.0000 0.52989  0.99618  0.26899  Biso   1.000  C
  H359     1.0000 0.53221  0.26529  0.04840  Biso   1.000  H
  C317     1.0000 0.46682  0.32080  0.05039  Biso   1.000  C
  C318     1.0000 0.50380  0.26899  0.97009  Biso   1.000  C
  C319     1.0000 0.23099  0.02991  0.00382  Biso   1.000  C
  H360     1.0000 0.30109  0.07648  0.93839  Biso   1.000  H
  H361     1.0000 0.35961  0.10001  0.95412  Biso   1.000  H
  H362     1.0000 0.30642  0.13602  0.96399  Biso   1.000  H
  H363     1.0000 0.40940  0.03438  0.32101  Biso   1.000  H
  H364     1.0000 0.46361  0.07091  0.32170  Biso   1.000  H
  C320     1.0000 0.47088  0.00061  0.37152  Biso   1.000  C
  H365     1.0000 0.54838  0.03219  0.26529  Biso   1.000  H
  C321     1.0000 0.55041  0.96680  0.32080  Biso   1.000  C
  N52      1.0000 0.54452  0.96139  0.22372  Biso   1.000  N
  H366     1.0000 0.46560  0.32101  0.09058  Biso   1.000  H
  H367     1.0000 0.42911  0.32170  0.03641  Biso   1.000  H
  C322     1.0000 0.49941  0.37152  0.02910  Biso   1.000  C
  H368     1.0000 0.46779  0.26529  0.95160  Biso   1.000  H
  C323     1.0000 0.53318  0.32080  0.94961  Biso   1.000  C
  N53      1.0000 0.53859  0.22372  0.95550  Biso   1.000  N
  C324     1.0000 0.17922  0.05039  0.03320  Biso   1.000  C
  C325     1.0000 0.23099  0.97009  0.99618  Biso   1.000  C
  H369     1.0000 0.23469  0.04840  0.96781  Biso   1.000  H
  H370     1.0000 0.44841  0.98419  0.39830  Biso   1.000  H
  C326     1.0000 0.52912  0.99939  0.37152  Biso   1.000  C
  H371     1.0000 0.59060  0.96562  0.32101  Biso   1.000  H
  H372     1.0000 0.53639  0.92909  0.32170  Biso   1.000  H
  C327     1.0000 0.57480  0.97838  0.18458  Biso   1.000  C
  H373     1.0000 0.51579  0.39830  0.05161  Biso   1.000  H
  C328     1.0000 0.50059  0.37152  0.97090  Biso   1.000  C
  H374     1.0000 0.53440  0.32101  0.90942  Biso   1.000  H
  H375     1.0000 0.57089  0.32170  0.96359  Biso   1.000  H
  C329     1.0000 0.52160  0.18458  0.92518  Biso   1.000  C
  H376     1.0000 0.17901  0.09058  0.03438  Biso   1.000  H
  H377     1.0000 0.17828  0.03641  0.07091  Biso   1.000  H
  C330     1.0000 0.12850  0.02910  0.00061  Biso   1.000  C
  C331     1.0000 0.17922  0.94961  0.96680  Biso   1.000  C
  N54      1.0000 0.27630  0.95550  0.96139  Biso   1.000  N
  H378     1.0000 0.23469  0.95160  0.03219  Biso   1.000  H
  H379     1.0000 0.55159  0.01581  0.39830  Biso   1.000  H
  C332     1.0000 0.59902  0.03560  0.17881  Biso   1.000  C
  C333     1.0000 0.58752  0.93872  0.13911  Biso   1.000  C
  H380     1.0000 0.48421  0.39830  0.94839  Biso   1.000  H
  C334     1.0000 0.56130  0.13911  0.91250  Biso   1.000  C
  C335     1.0000 0.46438  0.17881  0.90100  Biso   1.000  C
  C336     1.0000 0.12850  0.97090  0.99939  Biso   1.000  C
  H381     1.0000 0.10172  0.05161  0.98419  Biso   1.000  H
  H382     1.0000 0.17901  0.90942  0.96562  Biso   1.000  H
  H383     1.0000 0.17828  0.96359  0.92909  Biso   1.000  H
  C337     1.0000 0.31540  0.92518  0.97838  Biso   1.000  C
  H384     1.0000 0.57650  0.06161  0.19889  Biso   1.000  H
  H385     1.0000 0.59999  0.04588  0.14041  Biso   1.000  H
  H386     1.0000 0.63600  0.03601  0.19360  Biso   1.000  H
  C338     1.0000 0.55309  0.89560  0.13179  Biso   1.000  C
  C339     1.0000 0.63181  0.94689  0.10440  Biso   1.000  C
  C340     1.0000 0.55309  0.10440  0.86821  Biso   1.000  C
  C341     1.0000 0.60438  0.13179  0.94689  Biso   1.000  C
  H387     1.0000 0.43841  0.19889  0.92352  Biso   1.000  H
  H388     1.0000 0.45410  0.14041  0.89999  Biso   1.000  H
  H389     1.0000 0.46401  0.19360  0.86398  Biso   1.000  H
  H390     1.0000 0.10172  0.94839  0.01581  Biso   1.000  H
  C342     1.0000 0.36091  0.91250  0.93872  Biso   1.000  C
  C343     1.0000 0.32121  0.90100  0.03560  Biso   1.000  C
  H391     1.0000 0.52400  0.88938  0.15650  Biso   1.000  H
  C344     1.0000 0.56130  0.86089  0.08750  Biso   1.000  C
  C345     1.0000 0.63909  0.91250  0.06128  Biso   1.000  C
  H392     1.0000 0.65648  0.97598  0.11062  Biso   1.000  H
  H393     1.0000 0.52400  0.11062  0.84350  Biso   1.000  H
  C346     1.0000 0.58752  0.06128  0.86089  Biso   1.000  C
  H394     1.0000 0.61060  0.15650  0.97598  Biso   1.000  H
  C347     1.0000 0.63909  0.08750  0.93872  Biso   1.000  C
  C348     1.0000 0.39562  0.86821  0.94689  Biso   1.000  C
  C349     1.0000 0.36819  0.94689  0.89560  Biso   1.000  C
  H395     1.0000 0.30109  0.92352  0.06161  Biso   1.000  H
  H396     1.0000 0.35961  0.89999  0.04588  Biso   1.000  H
  H397     1.0000 0.30642  0.86398  0.03601  Biso   1.000  H
  C350     1.0000 0.52160  0.81542  0.07482  Biso   1.000  C
  C351     1.0000 0.60438  0.86821  0.05311  Biso   1.000  C
  C352     1.0000 0.68460  0.92518  0.02162  Biso   1.000  C
  C353     1.0000 0.63181  0.05311  0.89560  Biso   1.000  C
  C354     1.0000 0.57480  0.02162  0.81542  Biso   1.000  C
  C355     1.0000 0.68460  0.07482  0.97838  Biso   1.000  C
  H398     1.0000 0.38940  0.84350  0.97598  Biso   1.000  H
  C356     1.0000 0.43870  0.86089  0.91250  Biso   1.000  C
  H399     1.0000 0.34352  0.97598  0.88938  Biso   1.000  H
  C357     1.0000 0.41248  0.93872  0.86089  Biso   1.000  C
  C358     1.0000 0.46438  0.82119  0.09900  Biso   1.000  C
  N55      1.0000 0.53859  0.77628  0.04450  Biso   1.000  N
  H400     1.0000 0.61060  0.84350  0.02402  Biso   1.000  H
  C359     1.0000 0.67879  0.90100  0.96440  Biso   1.000  C
  N56      1.0000 0.72370  0.95550  0.03861  Biso   1.000  N
  H401     1.0000 0.65648  0.02402  0.88938  Biso   1.000  H
  C360     1.0000 0.59902  0.96440  0.82119  Biso   1.000  C
  N57      1.0000 0.54452  0.03861  0.77628  Biso   1.000  N
  C361     1.0000 0.67879  0.09900  0.03560  Biso   1.000  C
  N58      1.0000 0.72370  0.04450  0.96139  Biso   1.000  N
  C362     1.0000 0.44691  0.89560  0.86821  Biso   1.000  C
  C363     1.0000 0.47840  0.81542  0.92518  Biso   1.000  C
  C364     1.0000 0.42520  0.97838  0.81542  Biso   1.000  C
  H402     1.0000 0.43841  0.80111  0.07648  Biso   1.000  H
  H403     1.0000 0.45410  0.85959  0.10001  Biso   1.000  H
  H404     1.0000 0.46401  0.80640  0.13602  Biso   1.000  H
  C365     1.0000 0.50380  0.73101  0.02991  Biso   1.000  C
  H405     1.0000 0.69891  0.92352  0.93839  Biso   1.000  H
  H406     1.0000 0.64039  0.89999  0.95412  Biso   1.000  H
  H407     1.0000 0.69358  0.86398  0.96399  Biso   1.000  H
  C366     1.0000 0.76901  0.97009  0.00382  Biso   1.000  C
  H408     1.0000 0.57650  0.93839  0.80111  Biso   1.000  H
  H409     1.0000 0.59999  0.95412  0.85959  Biso   1.000  H
  H410     1.0000 0.63600  0.96399  0.80640  Biso   1.000  H
  C367     1.0000 0.52989  0.00382  0.73101  Biso   1.000  C
  H411     1.0000 0.69891  0.07648  0.06161  Biso   1.000  H
  H412     1.0000 0.64039  0.10001  0.04588  Biso   1.000  H
  H413     1.0000 0.69358  0.13602  0.03601  Biso   1.000  H
  C368     1.0000 0.76901  0.02991  0.99618  Biso   1.000  C
  H414     1.0000 0.47600  0.88938  0.84350  Biso   1.000  H
  C369     1.0000 0.53562  0.82119  0.90100  Biso   1.000  C
  N59      1.0000 0.46141  0.77628  0.95550  Biso   1.000  N
  N60      1.0000 0.45548  0.96139  0.77628  Biso   1.000  N
  C370     1.0000 0.40098  0.03560  0.82119  Biso   1.000  C
  C371     1.0000 0.49620  0.73101  0.97009  Biso   1.000  C
  H415     1.0000 0.46779  0.73471  0.04840  Biso   1.000  H
  C372     1.0000 0.53318  0.67920  0.05039  Biso   1.000  C
  H416     1.0000 0.76531  0.95160  0.96781  Biso   1.000  H
  C373     1.0000 0.82078  0.94961  0.03320  Biso   1.000  C
  C374     1.0000 0.47011  0.99618  0.73101  Biso   1.000  C
  H417     1.0000 0.54838  0.96781  0.73471  Biso   1.000  H
  C375     1.0000 0.55041  0.03320  0.67920  Biso   1.000  C
  H418     1.0000 0.76531  0.04840  0.03219  Biso   1.000  H
  C376     1.0000 0.82078  0.05039  0.96680  Biso   1.000  C
  H419     1.0000 0.56159  0.80111  0.92352  Biso   1.000  H
  H420     1.0000 0.54590  0.85959  0.89999  Biso   1.000  H
  H421     1.0000 0.53599  0.80640  0.86398  Biso   1.000  H
  H422     1.0000 0.42350  0.06161  0.80111  Biso   1.000  H
  H423     1.0000 0.40001  0.04588  0.85959  Biso   1.000  H
  H424     1.0000 0.36400  0.03601  0.80640  Biso   1.000  H
  H425     1.0000 0.53221  0.73471  0.95160  Biso   1.000  H
  C377     1.0000 0.46682  0.67920  0.94961  Biso   1.000  C
  H426     1.0000 0.53440  0.67899  0.09058  Biso   1.000  H
  H427     1.0000 0.57089  0.67830  0.03641  Biso   1.000  H
  C378     1.0000 0.50059  0.62848  0.02910  Biso   1.000  C
  H428     1.0000 0.82099  0.90942  0.03438  Biso   1.000  H
  H429     1.0000 0.82172  0.96359  0.07091  Biso   1.000  H
  C379     1.0000 0.87150  0.97090  0.00061  Biso   1.000  C
  C380     1.0000 0.44959  0.96680  0.67920  Biso   1.000  C
  H430     1.0000 0.45162  0.03219  0.73471  Biso   1.000  H
  H431     1.0000 0.59060  0.03438  0.67899  Biso   1.000  H
  H432     1.0000 0.53639  0.07091  0.67830  Biso   1.000  H
  C381     1.0000 0.52912  0.00061  0.62848  Biso   1.000  C
  H433     1.0000 0.82099  0.09058  0.96562  Biso   1.000  H
  H434     1.0000 0.82172  0.03641  0.92909  Biso   1.000  H
  C382     1.0000 0.87150  0.02910  0.99939  Biso   1.000  C
  H435     1.0000 0.46560  0.67899  0.90942  Biso   1.000  H
  H436     1.0000 0.42911  0.67830  0.96359  Biso   1.000  H
  C383     1.0000 0.49941  0.62848  0.97090  Biso   1.000  C
  H437     1.0000 0.48421  0.60170  0.05161  Biso   1.000  H
  H438     1.0000 0.89828  0.94839  0.98419  Biso   1.000  H
  H439     1.0000 0.40940  0.96562  0.67899  Biso   1.000  H
  H440     1.0000 0.46361  0.92909  0.67830  Biso   1.000  H
  C384     1.0000 0.47088  0.99939  0.62848  Biso   1.000  C
  H441     1.0000 0.55159  0.98419  0.60170  Biso   1.000  H
  H442     1.0000 0.89828  0.05161  0.01581  Biso   1.000  H
  H443     1.0000 0.51579  0.60170  0.94839  Biso   1.000  H
  H444     1.0000 0.44841  0.01581  0.60170  Biso   1.000  H
  C385     1.0000 0.13179  0.44691  0.10440  Biso   1.000  C
  C386     1.0000 0.13911  0.41248  0.06128  Biso   1.000  C
  H445     1.0000 0.15650  0.47600  0.11062  Biso   1.000  H
  C387     1.0000 0.08750  0.43870  0.13911  Biso   1.000  C
  C388     1.0000 0.10440  0.36819  0.05311  Biso   1.000  C
  C389     1.0000 0.18458  0.42520  0.02162  Biso   1.000  C
  C390     1.0000 0.05311  0.39562  0.13179  Biso   1.000  C
  C391     1.0000 0.07482  0.47840  0.18458  Biso   1.000  C
  C392     1.0000 0.06128  0.36091  0.08750  Biso   1.000  C
  H446     1.0000 0.11062  0.34352  0.02402  Biso   1.000  H
  N61      1.0000 0.22372  0.45548  0.03861  Biso   1.000  N
  C393     1.0000 0.17881  0.40098  0.96440  Biso   1.000  C
  H447     1.0000 0.02402  0.38940  0.15650  Biso   1.000  H
  C394     1.0000 0.09900  0.53562  0.17881  Biso   1.000  C
  N62      1.0000 0.04450  0.46141  0.22372  Biso   1.000  N
  C395     1.0000 0.02162  0.31540  0.07482  Biso   1.000  C
  C396     1.0000 0.26899  0.47011  0.00382  Biso   1.000  C
  H448     1.0000 0.19889  0.42350  0.93839  Biso   1.000  H
  H449     1.0000 0.14041  0.40001  0.95412  Biso   1.000  H
  H450     1.0000 0.19360  0.36400  0.96399  Biso   1.000  H
  H451     1.0000 0.07648  0.56159  0.19889  Biso   1.000  H
  H452     1.0000 0.10001  0.54590  0.14041  Biso   1.000  H
  H453     1.0000 0.13602  0.53599  0.19360  Biso   1.000  H
  C397     1.0000 0.02991  0.49620  0.26899  Biso   1.000  C
  N63      1.0000 0.03861  0.27630  0.04450  Biso   1.000  N
  C398     1.0000 0.96440  0.32121  0.09900  Biso   1.000  C
  C399     1.0000 0.32080  0.44959  0.03320  Biso   1.000  C
  H454     1.0000 0.26529  0.45162  0.96781  Biso   1.000  H
  C400     1.0000 0.26899  0.52989  0.99618  Biso   1.000  C
  H455     1.0000 0.04840  0.53221  0.26529  Biso   1.000  H
  C401     1.0000 0.05039  0.46682  0.32080  Biso   1.000  C
  C402     1.0000 0.97009  0.50380  0.26899  Biso   1.000  C
  C403     1.0000 0.00382  0.23099  0.02991  Biso   1.000  C
  H456     1.0000 0.93839  0.30109  0.07648  Biso   1.000  H
  H457     1.0000 0.95412  0.35961  0.10001  Biso   1.000  H
  H458     1.0000 0.96399  0.30642  0.13602  Biso   1.000  H
  H459     1.0000 0.32101  0.40940  0.03438  Biso   1.000  H
  H460     1.0000 0.32170  0.46361  0.07091  Biso   1.000  H
  C404     1.0000 0.37152  0.47088  0.00061  Biso   1.000  C
  H461     1.0000 0.26529  0.54838  0.03219  Biso   1.000  H
  C405     1.0000 0.32080  0.55041  0.96680  Biso   1.000  C
  N64      1.0000 0.22372  0.54452  0.96139  Biso   1.000  N
  H462     1.0000 0.09058  0.46560  0.32101  Biso   1.000  H
  H463     1.0000 0.03641  0.42911  0.32170  Biso   1.000  H
  C406     1.0000 0.02910  0.49941  0.37152  Biso   1.000  C
  H464     1.0000 0.95160  0.46779  0.26529  Biso   1.000  H
  C407     1.0000 0.94961  0.53318  0.32080  Biso   1.000  C
  N65      1.0000 0.95550  0.53859  0.22372  Biso   1.000  N
  C408     1.0000 0.03320  0.17922  0.05039  Biso   1.000  C
  C409     1.0000 0.99618  0.23099  0.97009  Biso   1.000  C
  H465     1.0000 0.96781  0.23469  0.04840  Biso   1.000  H
  H466     1.0000 0.39830  0.44841  0.98419  Biso   1.000  H
  C410     1.0000 0.37152  0.52912  0.99939  Biso   1.000  C
  H467     1.0000 0.32101  0.59060  0.96562  Biso   1.000  H
  H468     1.0000 0.32170  0.53639  0.92909  Biso   1.000  H
  C411     1.0000 0.18458  0.57480  0.97838  Biso   1.000  C
  H469     1.0000 0.05161  0.51579  0.39830  Biso   1.000  H
  C412     1.0000 0.97090  0.50059  0.37152  Biso   1.000  C
  H470     1.0000 0.90942  0.53440  0.32101  Biso   1.000  H
  H471     1.0000 0.96359  0.57089  0.32170  Biso   1.000  H
  C413     1.0000 0.92518  0.52160  0.18458  Biso   1.000  C
  H472     1.0000 0.03438  0.17901  0.09058  Biso   1.000  H
  H473     1.0000 0.07091  0.17828  0.03641  Biso   1.000  H
  C414     1.0000 0.00061  0.12850  0.02910  Biso   1.000  C
  C415     1.0000 0.96680  0.17922  0.94961  Biso   1.000  C
  N66      1.0000 0.96139  0.27630  0.95550  Biso   1.000  N
  H474     1.0000 0.03219  0.23469  0.95160  Biso   1.000  H
  H475     1.0000 0.39830  0.55159  0.01581  Biso   1.000  H
  C416     1.0000 0.17881  0.59902  0.03560  Biso   1.000  C
  C417     1.0000 0.13911  0.58752  0.93872  Biso   1.000  C
  H476     1.0000 0.94839  0.48421  0.39830  Biso   1.000  H
  C418     1.0000 0.91250  0.56130  0.13911  Biso   1.000  C
  C419     1.0000 0.90100  0.46438  0.17881  Biso   1.000  C
  C420     1.0000 0.99939  0.12850  0.97090  Biso   1.000  C
  H477     1.0000 0.98419  0.10172  0.05161  Biso   1.000  H
  H478     1.0000 0.96562  0.17901  0.90942  Biso   1.000  H
  H479     1.0000 0.92909  0.17828  0.96359  Biso   1.000  H
  C421     1.0000 0.97838  0.31540  0.92518  Biso   1.000  C
  H480     1.0000 0.19889  0.57650  0.06161  Biso   1.000  H
  H481     1.0000 0.14041  0.59999  0.04588  Biso   1.000  H
  H482     1.0000 0.19360  0.63600  0.03601  Biso   1.000  H
  C422     1.0000 0.13179  0.55309  0.89560  Biso   1.000  C
  C423     1.0000 0.10440  0.63181  0.94689  Biso   1.000  C
  C424     1.0000 0.86821  0.55309  0.10440  Biso   1.000  C
  C425     1.0000 0.94689  0.60438  0.13179  Biso   1.000  C
  H483     1.0000 0.92352  0.43841  0.19889  Biso   1.000  H
  H484     1.0000 0.89999  0.45410  0.14041  Biso   1.000  H
  H485     1.0000 0.86398  0.46401  0.19360  Biso   1.000  H
  H486     1.0000 0.01581  0.10172  0.94839  Biso   1.000  H
  C426     1.0000 0.93872  0.36091  0.91250  Biso   1.000  C
  C427     1.0000 0.03560  0.32121  0.90100  Biso   1.000  C
  H487     1.0000 0.15650  0.52400  0.88938  Biso   1.000  H
  C428     1.0000 0.08750  0.56130  0.86089  Biso   1.000  C
  C429     1.0000 0.06128  0.63909  0.91250  Biso   1.000  C
  H488     1.0000 0.11062  0.65648  0.97598  Biso   1.000  H
  C430     1.0000 0.86089  0.58752  0.06128  Biso   1.000  C
  H489     1.0000 0.84350  0.52400  0.11062  Biso   1.000  H
  H490     1.0000 0.97598  0.61060  0.15650  Biso   1.000  H
  C431     1.0000 0.93872  0.63909  0.08750  Biso   1.000  C
  C432     1.0000 0.89560  0.36819  0.94689  Biso   1.000  C
  C433     1.0000 0.94689  0.39562  0.86821  Biso   1.000  C
  H491     1.0000 0.06161  0.30109  0.92352  Biso   1.000  H
  H492     1.0000 0.04588  0.35961  0.89999  Biso   1.000  H
  H493     1.0000 0.03601  0.30642  0.86398  Biso   1.000  H
  C434     1.0000 0.05311  0.60438  0.86821  Biso   1.000  C
  C435     1.0000 0.07482  0.52160  0.81542  Biso   1.000  C
  C436     1.0000 0.02162  0.68460  0.92518  Biso   1.000  C
  C437     1.0000 0.89560  0.63181  0.05311  Biso   1.000  C
  C438     1.0000 0.81542  0.57480  0.02162  Biso   1.000  C
  C439     1.0000 0.97838  0.68460  0.07482  Biso   1.000  C
  H494     1.0000 0.88938  0.34352  0.97598  Biso   1.000  H
  C440     1.0000 0.86089  0.41248  0.93872  Biso   1.000  C
  H495     1.0000 0.97598  0.38940  0.84350  Biso   1.000  H
  C441     1.0000 0.91250  0.43870  0.86089  Biso   1.000  C
  H496     1.0000 0.02402  0.61060  0.84350  Biso   1.000  H
  C442     1.0000 0.09900  0.46438  0.82119  Biso   1.000  C
  N67      1.0000 0.04450  0.53859  0.77628  Biso   1.000  N
  C443     1.0000 0.96440  0.67879  0.90100  Biso   1.000  C
  N68      1.0000 0.03861  0.72370  0.95550  Biso   1.000  N
  H497     1.0000 0.88938  0.65648  0.02402  Biso   1.000  H
  C444     1.0000 0.82119  0.59902  0.96440  Biso   1.000  C
  N69      1.0000 0.77628  0.54452  0.03861  Biso   1.000  N
  C445     1.0000 0.03560  0.67879  0.09900  Biso   1.000  C
  N70      1.0000 0.96139  0.72370  0.04450  Biso   1.000  N
  C446     1.0000 0.81542  0.42520  0.97838  Biso   1.000  C
  C447     1.0000 0.86821  0.44691  0.89560  Biso   1.000  C
  C448     1.0000 0.92518  0.47840  0.81542  Biso   1.000  C
  H498     1.0000 0.07648  0.43841  0.80111  Biso   1.000  H
  H499     1.0000 0.10001  0.45410  0.85959  Biso   1.000  H
  H500     1.0000 0.13602  0.46401  0.80640  Biso   1.000  H
  C449     1.0000 0.02991  0.50380  0.73101  Biso   1.000  C
  H501     1.0000 0.93839  0.69891  0.92352  Biso   1.000  H
  H502     1.0000 0.95412  0.64039  0.89999  Biso   1.000  H
  H503     1.0000 0.96399  0.69358  0.86398  Biso   1.000  H
  C450     1.0000 0.00382  0.76901  0.97009  Biso   1.000  C
  H504     1.0000 0.80111  0.57650  0.93839  Biso   1.000  H
  H505     1.0000 0.85959  0.59999  0.95412  Biso   1.000  H
  H506     1.0000 0.80640  0.63600  0.96399  Biso   1.000  H
  C451     1.0000 0.73101  0.52989  0.00382  Biso   1.000  C
  H507     1.0000 0.06161  0.69891  0.07648  Biso   1.000  H
  H508     1.0000 0.04588  0.64039  0.10001  Biso   1.000  H
  H509     1.0000 0.03601  0.69358  0.13602  Biso   1.000  H
  C452     1.0000 0.99618  0.76901  0.02991  Biso   1.000  C
  N71      1.0000 0.77628  0.45548  0.96139  Biso   1.000  N
  C453     1.0000 0.82119  0.40098  0.03560  Biso   1.000  C
  H510     1.0000 0.84350  0.47600  0.88938  Biso   1.000  H
  C454     1.0000 0.90100  0.53562  0.82119  Biso   1.000  C
  N72      1.0000 0.95550  0.46141  0.77628  Biso   1.000  N
  C455     1.0000 0.97009  0.49620  0.73101  Biso   1.000  C
  H511     1.0000 0.04840  0.46779  0.73471  Biso   1.000  H
  C456     1.0000 0.05039  0.53318  0.67920  Biso   1.000  C
  H512     1.0000 0.96781  0.76531  0.95160  Biso   1.000  H
  C457     1.0000 0.03320  0.82078  0.94961  Biso   1.000  C
  C458     1.0000 0.73101  0.47011  0.99618  Biso   1.000  C
  H513     1.0000 0.73471  0.54838  0.96781  Biso   1.000  H
  C459     1.0000 0.67920  0.55041  0.03320  Biso   1.000  C
  H514     1.0000 0.03219  0.76531  0.04840  Biso   1.000  H
  C460     1.0000 0.96680  0.82078  0.05039  Biso   1.000  C
  H515     1.0000 0.80111  0.42350  0.06161  Biso   1.000  H
  H516     1.0000 0.85959  0.40001  0.04588  Biso   1.000  H
  H517     1.0000 0.80640  0.36400  0.03601  Biso   1.000  H
  H518     1.0000 0.92352  0.56159  0.80111  Biso   1.000  H
  H519     1.0000 0.89999  0.54590  0.85959  Biso   1.000  H
  H520     1.0000 0.86398  0.53599  0.80640  Biso   1.000  H
  H521     1.0000 0.95160  0.53221  0.73471  Biso   1.000  H
  C461     1.0000 0.94961  0.46682  0.67920  Biso   1.000  C
  H522     1.0000 0.09058  0.53440  0.67899  Biso   1.000  H
  H523     1.0000 0.03641  0.57089  0.67830  Biso   1.000  H
  C462     1.0000 0.02910  0.50059  0.62848  Biso   1.000  C
  H524     1.0000 0.03438  0.82099  0.90942  Biso   1.000  H
  H525     1.0000 0.07091  0.82172  0.96359  Biso   1.000  H
  C463     1.0000 0.00061  0.87150  0.97090  Biso   1.000  C
  C464     1.0000 0.67920  0.44959  0.96680  Biso   1.000  C
  H526     1.0000 0.73471  0.45162  0.03219  Biso   1.000  H
  H527     1.0000 0.67899  0.59060  0.03438  Biso   1.000  H
  H528     1.0000 0.67830  0.53639  0.07091  Biso   1.000  H
  C465     1.0000 0.62848  0.52912  0.00061  Biso   1.000  C
  H529     1.0000 0.96562  0.82099  0.09058  Biso   1.000  H
  H530     1.0000 0.92909  0.82172  0.03641  Biso   1.000  H
  C466     1.0000 0.99939  0.87150  0.02910  Biso   1.000  C
  H531     1.0000 0.90942  0.46560  0.67899  Biso   1.000  H
  H532     1.0000 0.96359  0.42911  0.67830  Biso   1.000  H
  C467     1.0000 0.97090  0.49941  0.62848  Biso   1.000  C
  H533     1.0000 0.05161  0.48421  0.60170  Biso   1.000  H
  H534     1.0000 0.98419  0.89828  0.94839  Biso   1.000  H
  H535     1.0000 0.67899  0.40940  0.96562  Biso   1.000  H
  H536     1.0000 0.67830  0.46361  0.92909  Biso   1.000  H
  C468     1.0000 0.62848  0.47088  0.99939  Biso   1.000  C
  H537     1.0000 0.60170  0.55159  0.98419  Biso   1.000  H
  H538     1.0000 0.01581  0.89828  0.05161  Biso   1.000  H
  H539     1.0000 0.94839  0.51579  0.60170  Biso   1.000  H
  H540     1.0000 0.60170  0.44841  0.01581  Biso   1.000  H
  C469     1.0000 0.10440  0.13179  0.44691  Biso   1.000  C
  C470     1.0000 0.13911  0.08750  0.43870  Biso   1.000  C
  C471     1.0000 0.06128  0.13911  0.41248  Biso   1.000  C
  H541     1.0000 0.11062  0.15650  0.47600  Biso   1.000  H
  C472     1.0000 0.13179  0.05311  0.39562  Biso   1.000  C
  C473     1.0000 0.18458  0.07482  0.47840  Biso   1.000  C
  C474     1.0000 0.05311  0.10440  0.36819  Biso   1.000  C
  C475     1.0000 0.02162  0.18458  0.42520  Biso   1.000  C
  H542     1.0000 0.15650  0.02402  0.38940  Biso   1.000  H
  C476     1.0000 0.08750  0.06128  0.36091  Biso   1.000  C
  C477     1.0000 0.17881  0.09900  0.53562  Biso   1.000  C
  N73      1.0000 0.22372  0.04450  0.46141  Biso   1.000  N
  H543     1.0000 0.02402  0.11062  0.34352  Biso   1.000  H
  N74      1.0000 0.03861  0.22372  0.45548  Biso   1.000  N
  C478     1.0000 0.96440  0.17881  0.40098  Biso   1.000  C
  C479     1.0000 0.07482  0.02162  0.31540  Biso   1.000  C
  H544     1.0000 0.19889  0.07648  0.56159  Biso   1.000  H
  H545     1.0000 0.14041  0.10001  0.54590  Biso   1.000  H
  H546     1.0000 0.19360  0.13602  0.53599  Biso   1.000  H
  C480     1.0000 0.26899  0.02991  0.49620  Biso   1.000  C
  C481     1.0000 0.00382  0.26899  0.47011  Biso   1.000  C
  H547     1.0000 0.93839  0.19889  0.42350  Biso   1.000  H
  H548     1.0000 0.95412  0.14041  0.40001  Biso   1.000  H
  H549     1.0000 0.96399  0.19360  0.36400  Biso   1.000  H
  N75      1.0000 0.04450  0.03861  0.27630  Biso   1.000  N
  C482     1.0000 0.09900  0.96440  0.32121  Biso   1.000  C
  H550     1.0000 0.26529  0.04840  0.53221  Biso   1.000  H
  C483     1.0000 0.32080  0.05039  0.46682  Biso   1.000  C
  C484     1.0000 0.26899  0.97009  0.50380  Biso   1.000  C
  C485     1.0000 0.03320  0.32080  0.44959  Biso   1.000  C
  C486     1.0000 0.99618  0.26899  0.52989  Biso   1.000  C
  H551     1.0000 0.96781  0.26529  0.45162  Biso   1.000  H
  C487     1.0000 0.02991  0.00382  0.23099  Biso   1.000  C
  H552     1.0000 0.07648  0.93839  0.30109  Biso   1.000  H
  H553     1.0000 0.10001  0.95412  0.35961  Biso   1.000  H
  H554     1.0000 0.13602  0.96399  0.30642  Biso   1.000  H
  H555     1.0000 0.32101  0.09058  0.46560  Biso   1.000  H
  H556     1.0000 0.32170  0.03641  0.42911  Biso   1.000  H
  C488     1.0000 0.37152  0.02910  0.49941  Biso   1.000  C
  H557     1.0000 0.26529  0.95160  0.46779  Biso   1.000  H
  C489     1.0000 0.32080  0.94961  0.53318  Biso   1.000  C
  N76      1.0000 0.22372  0.95550  0.53859  Biso   1.000  N
  H558     1.0000 0.03438  0.32101  0.40940  Biso   1.000  H
  H559     1.0000 0.07091  0.32170  0.46361  Biso   1.000  H
  C490     1.0000 0.00061  0.37152  0.47088  Biso   1.000  C
  H560     1.0000 0.03219  0.26529  0.54838  Biso   1.000  H
  C491     1.0000 0.96680  0.32080  0.55041  Biso   1.000  C
  N77      1.0000 0.96139  0.22372  0.54452  Biso   1.000  N
  C492     1.0000 0.05039  0.03320  0.17922  Biso   1.000  C
  C493     1.0000 0.97009  0.99618  0.23099  Biso   1.000  C
  H561     1.0000 0.04840  0.96781  0.23469  Biso   1.000  H
  H562     1.0000 0.39830  0.05161  0.51579  Biso   1.000  H
  C494     1.0000 0.37152  0.97090  0.50059  Biso   1.000  C
  H563     1.0000 0.32101  0.90942  0.53440  Biso   1.000  H
  H564     1.0000 0.32170  0.96359  0.57089  Biso   1.000  H
  C495     1.0000 0.18458  0.92518  0.52160  Biso   1.000  C
  C496     1.0000 0.99939  0.37152  0.52912  Biso   1.000  C
  H565     1.0000 0.98419  0.39830  0.44841  Biso   1.000  H
  H566     1.0000 0.96562  0.32101  0.59060  Biso   1.000  H
  H567     1.0000 0.92909  0.32170  0.53639  Biso   1.000  H
  C497     1.0000 0.97838  0.18458  0.57480  Biso   1.000  C
  H568     1.0000 0.09058  0.03438  0.17901  Biso   1.000  H
  H569     1.0000 0.03641  0.07091  0.17828  Biso   1.000  H
  C498     1.0000 0.02910  0.00061  0.12850  Biso   1.000  C
  C499     1.0000 0.94961  0.96680  0.17922  Biso   1.000  C
  N78      1.0000 0.95550  0.96139  0.27630  Biso   1.000  N
  H570     1.0000 0.95160  0.03219  0.23469  Biso   1.000  H
  H571     1.0000 0.39830  0.94839  0.48421  Biso   1.000  H
  C500     1.0000 0.13911  0.91250  0.56130  Biso   1.000  C
  C501     1.0000 0.17881  0.90100  0.46438  Biso   1.000  C
  H572     1.0000 0.01581  0.39830  0.55159  Biso   1.000  H
  C502     1.0000 0.03560  0.17881  0.59902  Biso   1.000  C
  C503     1.0000 0.93872  0.13911  0.58752  Biso   1.000  C
  C504     1.0000 0.97090  0.99939  0.12850  Biso   1.000  C
  H573     1.0000 0.05161  0.98419  0.10172  Biso   1.000  H
  H574     1.0000 0.90942  0.96562  0.17901  Biso   1.000  H
  H575     1.0000 0.96359  0.92909  0.17828  Biso   1.000  H
  C505     1.0000 0.92518  0.97838  0.31540  Biso   1.000  C
  C506     1.0000 0.10440  0.86821  0.55309  Biso   1.000  C
  C507     1.0000 0.13179  0.94689  0.60438  Biso   1.000  C
  H576     1.0000 0.19889  0.92352  0.43841  Biso   1.000  H
  H577     1.0000 0.14041  0.89999  0.45410  Biso   1.000  H
  H578     1.0000 0.19360  0.86398  0.46401  Biso   1.000  H
  H579     1.0000 0.06161  0.19889  0.57650  Biso   1.000  H
  H580     1.0000 0.04588  0.14041  0.59999  Biso   1.000  H
  H581     1.0000 0.03601  0.19360  0.63600  Biso   1.000  H
  C508     1.0000 0.89560  0.13179  0.55309  Biso   1.000  C
  C509     1.0000 0.94689  0.10440  0.63181  Biso   1.000  C
  H582     1.0000 0.94839  0.01581  0.10172  Biso   1.000  H
  C510     1.0000 0.91250  0.93872  0.36091  Biso   1.000  C
  C511     1.0000 0.90100  0.03560  0.32121  Biso   1.000  C
  C512     1.0000 0.06128  0.86089  0.58752  Biso   1.000  C
  H583     1.0000 0.11062  0.84350  0.52400  Biso   1.000  H
  H584     1.0000 0.15650  0.97598  0.61060  Biso   1.000  H
  C513     1.0000 0.08750  0.93872  0.63909  Biso   1.000  C
  H585     1.0000 0.88938  0.15650  0.52400  Biso   1.000  H
  C514     1.0000 0.86089  0.08750  0.56130  Biso   1.000  C
  C515     1.0000 0.91250  0.06128  0.63909  Biso   1.000  C
  H586     1.0000 0.97598  0.11062  0.65648  Biso   1.000  H
  C516     1.0000 0.94689  0.89560  0.36819  Biso   1.000  C
  C517     1.0000 0.86821  0.94689  0.39562  Biso   1.000  C
  H587     1.0000 0.92352  0.06161  0.30109  Biso   1.000  H
  H588     1.0000 0.89999  0.04588  0.35961  Biso   1.000  H
  H589     1.0000 0.86398  0.03601  0.30642  Biso   1.000  H
  C518     1.0000 0.05311  0.89560  0.63181  Biso   1.000  C
  C519     1.0000 0.02162  0.81542  0.57480  Biso   1.000  C
  C520     1.0000 0.07482  0.97838  0.68460  Biso   1.000  C
  C521     1.0000 0.81542  0.07482  0.52160  Biso   1.000  C
  C522     1.0000 0.86821  0.05311  0.60438  Biso   1.000  C
  C523     1.0000 0.92518  0.02162  0.68460  Biso   1.000  C
  H590     1.0000 0.97598  0.88938  0.34352  Biso   1.000  H
  C524     1.0000 0.93872  0.86089  0.41248  Biso   1.000  C
  C525     1.0000 0.86089  0.91250  0.43870  Biso   1.000  C
  H591     1.0000 0.84350  0.97598  0.38940  Biso   1.000  H
  H592     1.0000 0.02402  0.88938  0.65648  Biso   1.000  H
  C526     1.0000 0.96440  0.82119  0.59902  Biso   1.000  C
  N79      1.0000 0.03861  0.77628  0.54452  Biso   1.000  N
  C527     1.0000 0.09900  0.03560  0.67879  Biso   1.000  C
  N80      1.0000 0.04450  0.96139  0.72370  Biso   1.000  N
  C528     1.0000 0.82119  0.09900  0.46438  Biso   1.000  C
  N81      1.0000 0.77628  0.04450  0.53859  Biso   1.000  N
  H593     1.0000 0.84350  0.02402  0.61060  Biso   1.000  H
  C529     1.0000 0.90100  0.96440  0.67879  Biso   1.000  C
  N82      1.0000 0.95550  0.03861  0.72370  Biso   1.000  N
  C530     1.0000 0.89560  0.86821  0.44691  Biso   1.000  C
  C531     1.0000 0.97838  0.81542  0.42520  Biso   1.000  C
  C532     1.0000 0.81542  0.92518  0.47840  Biso   1.000  C
  H594     1.0000 0.93839  0.80111  0.57650  Biso   1.000  H
  H595     1.0000 0.95412  0.85959  0.59999  Biso   1.000  H
  H596     1.0000 0.96399  0.80640  0.63600  Biso   1.000  H
  C533     1.0000 0.00382  0.73101  0.52989  Biso   1.000  C
  H597     1.0000 0.07648  0.06161  0.69891  Biso   1.000  H
  H598     1.0000 0.10001  0.04588  0.64039  Biso   1.000  H
  H599     1.0000 0.13602  0.03601  0.69358  Biso   1.000  H
  C534     1.0000 0.02991  0.99618  0.76901  Biso   1.000  C
  H600     1.0000 0.80111  0.07648  0.43841  Biso   1.000  H
  H601     1.0000 0.85959  0.10001  0.45410  Biso   1.000  H
  H602     1.0000 0.80640  0.13602  0.46401  Biso   1.000  H
  C535     1.0000 0.73101  0.02991  0.50380  Biso   1.000  C
  H603     1.0000 0.92352  0.93839  0.69891  Biso   1.000  H
  H604     1.0000 0.89999  0.95412  0.64039  Biso   1.000  H
  H605     1.0000 0.86398  0.96399  0.69358  Biso   1.000  H
  C536     1.0000 0.97009  0.00382  0.76901  Biso   1.000  C
  H606     1.0000 0.88938  0.84350  0.47600  Biso   1.000  H
  N83      1.0000 0.96139  0.77628  0.45548  Biso   1.000  N
  C537     1.0000 0.03560  0.82119  0.40098  Biso   1.000  C
  C538     1.0000 0.82119  0.90100  0.53562  Biso   1.000  C
  N84      1.0000 0.77628  0.95550  0.46141  Biso   1.000  N
  C539     1.0000 0.99618  0.73101  0.47011  Biso   1.000  C
  H607     1.0000 0.96781  0.73471  0.54838  Biso   1.000  H
  C540     1.0000 0.03320  0.67920  0.55041  Biso   1.000  C
  H608     1.0000 0.04840  0.03219  0.76531  Biso   1.000  H
  C541     1.0000 0.05039  0.96680  0.82078  Biso   1.000  C
  C542     1.0000 0.73101  0.97009  0.49620  Biso   1.000  C
  H609     1.0000 0.73471  0.04840  0.46779  Biso   1.000  H
  C543     1.0000 0.67920  0.05039  0.53318  Biso   1.000  C
  H610     1.0000 0.95160  0.96781  0.76531  Biso   1.000  H
  C544     1.0000 0.94961  0.03320  0.82078  Biso   1.000  C
  H611     1.0000 0.06161  0.80111  0.42350  Biso   1.000  H
  H612     1.0000 0.04588  0.85959  0.40001  Biso   1.000  H
  H613     1.0000 0.03601  0.80640  0.36400  Biso   1.000  H
  H614     1.0000 0.80111  0.92352  0.56159  Biso   1.000  H
  H615     1.0000 0.85959  0.89999  0.54590  Biso   1.000  H
  H616     1.0000 0.80640  0.86398  0.53599  Biso   1.000  H
  C545     1.0000 0.96680  0.67920  0.44959  Biso   1.000  C
  H617     1.0000 0.03219  0.73471  0.45162  Biso   1.000  H
  H618     1.0000 0.03438  0.67899  0.59060  Biso   1.000  H
  H619     1.0000 0.07091  0.67830  0.53639  Biso   1.000  H
  C546     1.0000 0.00061  0.62848  0.52912  Biso   1.000  C
  H620     1.0000 0.09058  0.96562  0.82099  Biso   1.000  H
  H621     1.0000 0.03641  0.92909  0.82172  Biso   1.000  H
  C547     1.0000 0.02910  0.99939  0.87150  Biso   1.000  C
  H622     1.0000 0.73471  0.95160  0.53221  Biso   1.000  H
  C548     1.0000 0.67920  0.94961  0.46682  Biso   1.000  C
  C549     1.0000 0.62848  0.02910  0.50059  Biso   1.000  C
  H623     1.0000 0.67899  0.09058  0.53440  Biso   1.000  H
  H624     1.0000 0.67830  0.03641  0.57089  Biso   1.000  H
  H625     1.0000 0.90942  0.03438  0.82099  Biso   1.000  H
  H626     1.0000 0.96359  0.07091  0.82172  Biso   1.000  H
  C550     1.0000 0.97090  0.00061  0.87150  Biso   1.000  C
  H627     1.0000 0.96562  0.67899  0.40940  Biso   1.000  H
  H628     1.0000 0.92909  0.67830  0.46361  Biso   1.000  H
  C551     1.0000 0.99939  0.62848  0.47088  Biso   1.000  C
  H629     1.0000 0.98419  0.60170  0.55159  Biso   1.000  H
  H630     1.0000 0.05161  0.01581  0.89828  Biso   1.000  H
  H631     1.0000 0.67899  0.90942  0.46560  Biso   1.000  H
  H632     1.0000 0.67830  0.96359  0.42911  Biso   1.000  H
  C552     1.0000 0.62848  0.97090  0.49941  Biso   1.000  C
  H633     1.0000 0.60170  0.05161  0.48421  Biso   1.000  H
  H634     1.0000 0.94839  0.98419  0.89828  Biso   1.000  H
  H635     1.0000 0.01581  0.60170  0.44841  Biso   1.000  H
  H636     1.0000 0.60170  0.94839  0.51579  Biso   1.000  H
  C553     1.0000 0.72040  0.75930  0.37721  Biso   1.000  C
  C554     1.0000 0.77962  0.74068  0.37721  Biso   1.000  C
  C555     1.0000 0.70781  0.79449  0.42541  Biso   1.000  C
  H637     1.0000 0.71289  0.77982  0.34340  Biso   1.000  H
  H638     1.0000 0.69639  0.72699  0.37770  Biso   1.000  H
  C556     1.0000 0.79221  0.70549  0.42541  Biso   1.000  C
  H639     1.0000 0.78709  0.72020  0.34340  Biso   1.000  H
  H640     1.0000 0.80359  0.77299  0.37770  Biso   1.000  H
  C557     1.0000 0.72240  0.76121  0.47702  Biso   1.000  C
  H641     1.0000 0.66879  0.80441  0.42569  Biso   1.000  H
  H642     1.0000 0.72951  0.82830  0.42399  Biso   1.000  H
  C558     1.0000 0.77758  0.73881  0.47702  Biso   1.000  C
  H643     1.0000 0.83119  0.69562  0.42569  Biso   1.000  H
  H644     1.0000 0.77051  0.67172  0.42399  Biso   1.000  H
  H645     1.0000 0.69659  0.72991  0.47881  Biso   1.000  H
  N85      1.0000 0.71240  0.79510  0.52489  Biso   1.000  N
  N86      1.0000 0.78758  0.70488  0.52489  Biso   1.000  N
  H646     1.0000 0.80339  0.77011  0.47881  Biso   1.000  H
  C559     1.0000 0.67330  0.78429  0.55431  Biso   1.000  C
  C560     1.0000 0.82672  0.71569  0.55431  Biso   1.000  C
  C561     1.0000 0.66180  0.81899  0.60410  Biso   1.000  C
  H647     1.0000 0.65038  0.75442  0.54590  Biso   1.000  H
  C562     1.0000 0.83822  0.68099  0.60410  Biso   1.000  C
  H648     1.0000 0.84960  0.74560  0.54590  Biso   1.000  H
  C563     1.0000 0.69220  0.86431  0.61718  Biso   1.000  C
  C564     1.0000 0.61718  0.80782  0.63571  Biso   1.000  C
  C565     1.0000 0.80782  0.63571  0.61718  Biso   1.000  C
  C566     1.0000 0.88280  0.69220  0.63571  Biso   1.000  C
  H649     1.0000 0.72191  0.87402  0.59459  Biso   1.000  H
  C567     1.0000 0.68099  0.89588  0.66180  Biso   1.000  C
  C568     1.0000 0.60410  0.83822  0.68099  Biso   1.000  C
  H650     1.0000 0.59459  0.77811  0.62600  Biso   1.000  H
  C569     1.0000 0.81899  0.60410  0.66180  Biso   1.000  C
  H651     1.0000 0.77811  0.62600  0.59459  Biso   1.000  H
  C570     1.0000 0.89588  0.66180  0.68099  Biso   1.000  C
  H652     1.0000 0.90539  0.72191  0.62600  Biso   1.000  H
  C571     1.0000 0.63571  0.88280  0.69220  Biso   1.000  C
  C572     1.0000 0.71569  0.94571  0.67330  Biso   1.000  C
  C573     1.0000 0.55431  0.82672  0.71569  Biso   1.000  C
  C574     1.0000 0.78429  0.55431  0.67330  Biso   1.000  C
  C575     1.0000 0.86431  0.61718  0.69220  Biso   1.000  C
  C576     1.0000 0.94571  0.67330  0.71569  Biso   1.000  C
  H653     1.0000 0.62600  0.90539  0.72191  Biso   1.000  H
  H654     1.0000 0.74560  0.95412  0.65038  Biso   1.000  H
  N87      1.0000 0.70488  0.97509  0.71240  Biso   1.000  N
  N88      1.0000 0.52489  0.78758  0.70488  Biso   1.000  N
  H655     1.0000 0.54590  0.84960  0.74560  Biso   1.000  H
  N89      1.0000 0.79510  0.52489  0.71240  Biso   1.000  N
  H656     1.0000 0.75442  0.54590  0.65038  Biso   1.000  H
  H657     1.0000 0.87402  0.59459  0.72191  Biso   1.000  H
  H658     1.0000 0.95412  0.65038  0.74560  Biso   1.000  H
  N90      1.0000 0.97509  0.71240  0.70488  Biso   1.000  N
  C577     1.0000 0.73881  0.02300  0.72240  Biso   1.000  C
  C578     1.0000 0.47702  0.77758  0.73881  Biso   1.000  C
  C579     1.0000 0.76121  0.47702  0.72240  Biso   1.000  C
  C580     1.0000 0.02300  0.72240  0.73881  Biso   1.000  C
  C581     1.0000 0.76121  0.02300  0.77758  Biso   1.000  C
  H659     1.0000 0.77011  0.02121  0.69659  Biso   1.000  H
  C582     1.0000 0.70549  0.07461  0.70781  Biso   1.000  C
  C583     1.0000 0.47702  0.72240  0.76121  Biso   1.000  C
  H660     1.0000 0.47881  0.80339  0.77011  Biso   1.000  H
  C584     1.0000 0.42541  0.79221  0.70549  Biso   1.000  C
  C585     1.0000 0.79449  0.42541  0.70781  Biso   1.000  C
  H661     1.0000 0.72991  0.47881  0.69659  Biso   1.000  H
  C586     1.0000 0.73881  0.47702  0.77758  Biso   1.000  C
  H662     1.0000 0.02121  0.69659  0.77011  Biso   1.000  H
  C587     1.0000 0.07461  0.70781  0.70549  Biso   1.000  C
  C588     1.0000 0.02300  0.77758  0.76121  Biso   1.000  C
  N91      1.0000 0.79510  0.97509  0.78758  Biso   1.000  N
  H663     1.0000 0.72991  0.02121  0.80339  Biso   1.000  H
  C589     1.0000 0.79449  0.07461  0.79221  Biso   1.000  C
  H664     1.0000 0.69562  0.07429  0.66879  Biso   1.000  H
  H665     1.0000 0.67172  0.07599  0.72951  Biso   1.000  H
  C590     1.0000 0.74068  0.12281  0.72040  Biso   1.000  C
  N92      1.0000 0.52489  0.71240  0.79510  Biso   1.000  N
  H666     1.0000 0.47881  0.69659  0.72991  Biso   1.000  H
  C591     1.0000 0.42541  0.70781  0.79449  Biso   1.000  C
  H667     1.0000 0.42569  0.83119  0.69562  Biso   1.000  H
  H668     1.0000 0.42399  0.77051  0.67172  Biso   1.000  H
  C592     1.0000 0.37721  0.77962  0.74068  Biso   1.000  C
  C593     1.0000 0.75930  0.37721  0.72040  Biso   1.000  C
  H669     1.0000 0.80441  0.42569  0.66879  Biso   1.000  H
  H670     1.0000 0.82830  0.42399  0.72951  Biso   1.000  H
  C594     1.0000 0.70549  0.42541  0.79221  Biso   1.000  C
  H671     1.0000 0.77011  0.47881  0.80339  Biso   1.000  H
  N93      1.0000 0.70488  0.52489  0.78758  Biso   1.000  N
  H672     1.0000 0.07429  0.66879  0.69562  Biso   1.000  H
  H673     1.0000 0.07599  0.72951  0.67172  Biso   1.000  H
  C595     1.0000 0.12281  0.72040  0.74068  Biso   1.000  C
  N94      1.0000 0.97509  0.78758  0.79510  Biso   1.000  N
  H674     1.0000 0.02121  0.80339  0.72991  Biso   1.000  H
  C596     1.0000 0.07461  0.79221  0.79449  Biso   1.000  C
  C597     1.0000 0.78429  0.94571  0.82672  Biso   1.000  C
  H675     1.0000 0.80441  0.07429  0.83119  Biso   1.000  H
  H676     1.0000 0.82830  0.07599  0.77051  Biso   1.000  H
  C598     1.0000 0.75930  0.12281  0.77962  Biso   1.000  C
  H677     1.0000 0.72020  0.15658  0.71289  Biso   1.000  H
  H678     1.0000 0.77299  0.12228  0.69639  Biso   1.000  H
  C599     1.0000 0.55431  0.67330  0.78429  Biso   1.000  C
  H679     1.0000 0.42569  0.66879  0.80441  Biso   1.000  H
  H680     1.0000 0.42399  0.72951  0.82830  Biso   1.000  H
  C600     1.0000 0.37721  0.72040  0.75930  Biso   1.000  C
  H681     1.0000 0.34340  0.78709  0.72020  Biso   1.000  H
  H682     1.0000 0.37770  0.80359  0.77299  Biso   1.000  H
  H683     1.0000 0.77982  0.34340  0.71289  Biso   1.000  H
  H684     1.0000 0.72699  0.37770  0.69639  Biso   1.000  H
  C601     1.0000 0.74068  0.37721  0.77962  Biso   1.000  C
  H685     1.0000 0.69562  0.42569  0.83119  Biso   1.000  H
  H686     1.0000 0.67172  0.42399  0.77051  Biso   1.000  H
  C602     1.0000 0.71569  0.55431  0.82672  Biso   1.000  C
  H687     1.0000 0.15658  0.71289  0.72020  Biso   1.000  H
  H688     1.0000 0.12228  0.69639  0.77299  Biso   1.000  H
  C603     1.0000 0.12281  0.77962  0.75930  Biso   1.000  C
  C604     1.0000 0.94571  0.82672  0.78429  Biso   1.000  C
  H689     1.0000 0.07429  0.83119  0.80441  Biso   1.000  H
  H690     1.0000 0.07599  0.77051  0.82830  Biso   1.000  H
  C605     1.0000 0.81899  0.89588  0.83822  Biso   1.000  C
  H691     1.0000 0.75442  0.95412  0.84960  Biso   1.000  H
  H692     1.0000 0.77982  0.15658  0.78709  Biso   1.000  H
  H693     1.0000 0.72699  0.12228  0.80359  Biso   1.000  H
  C606     1.0000 0.60410  0.66180  0.81899  Biso   1.000  C
  H694     1.0000 0.54590  0.65038  0.75442  Biso   1.000  H
  H695     1.0000 0.34340  0.71289  0.77982  Biso   1.000  H
  H696     1.0000 0.37770  0.69639  0.72699  Biso   1.000  H
  H697     1.0000 0.72020  0.34340  0.78709  Biso   1.000  H
  H698     1.0000 0.77299  0.37770  0.80359  Biso   1.000  H
  C607     1.0000 0.68099  0.60410  0.83822  Biso   1.000  C
  H699     1.0000 0.74560  0.54590  0.84960  Biso   1.000  H
  H700     1.0000 0.15658  0.78709  0.77982  Biso   1.000  H
  H701     1.0000 0.12228  0.80359  0.72699  Biso   1.000  H
  C608     1.0000 0.89588  0.83822  0.81899  Biso   1.000  C
  H702     1.0000 0.95412  0.84960  0.75442  Biso   1.000  H
  C609     1.0000 0.86431  0.88280  0.80782  Biso   1.000  C
  C610     1.0000 0.80782  0.86431  0.88280  Biso   1.000  C
  C611     1.0000 0.63571  0.61718  0.80782  Biso   1.000  C
  C612     1.0000 0.61718  0.69220  0.86431  Biso   1.000  C
  C613     1.0000 0.69220  0.63571  0.88280  Biso   1.000  C
  C614     1.0000 0.88280  0.80782  0.86431  Biso   1.000  C
  H703     1.0000 0.87402  0.90539  0.77811  Biso   1.000  H
  C615     1.0000 0.83822  0.81899  0.89588  Biso   1.000  C
  H704     1.0000 0.77811  0.87402  0.90539  Biso   1.000  H
  H705     1.0000 0.62600  0.59459  0.77811  Biso   1.000  H
  C616     1.0000 0.66180  0.68099  0.89588  Biso   1.000  C
  H706     1.0000 0.59459  0.72191  0.87402  Biso   1.000  H
  H707     1.0000 0.72191  0.62600  0.90539  Biso   1.000  H
  H708     1.0000 0.90539  0.77811  0.87402  Biso   1.000  H
  C617     1.0000 0.82672  0.78429  0.94571  Biso   1.000  C
  C618     1.0000 0.67330  0.71569  0.94571  Biso   1.000  C
  N95      1.0000 0.78758  0.79510  0.97509  Biso   1.000  N
  H709     1.0000 0.84960  0.75442  0.95412  Biso   1.000  H
  H710     1.0000 0.65038  0.74560  0.95412  Biso   1.000  H
  N96      1.0000 0.71240  0.70488  0.97509  Biso   1.000  N
  C619     1.0000 0.77758  0.76121  0.02300  Biso   1.000  C
  C620     1.0000 0.72240  0.73881  0.02300  Biso   1.000  C
  H711     1.0000 0.80339  0.72991  0.02121  Biso   1.000  H
  C621     1.0000 0.79221  0.79449  0.07461  Biso   1.000  C
  H712     1.0000 0.69659  0.77011  0.02121  Biso   1.000  H
  C622     1.0000 0.70781  0.70549  0.07461  Biso   1.000  C
  H713     1.0000 0.83119  0.80441  0.07429  Biso   1.000  H
  H714     1.0000 0.77051  0.82830  0.07599  Biso   1.000  H
  C623     1.0000 0.77962  0.75930  0.12281  Biso   1.000  C
  H715     1.0000 0.66879  0.69562  0.07429  Biso   1.000  H
  H716     1.0000 0.72951  0.67172  0.07599  Biso   1.000  H
  C624     1.0000 0.72040  0.74068  0.12281  Biso   1.000  C
  H717     1.0000 0.78709  0.77982  0.15658  Biso   1.000  H
  H718     1.0000 0.80359  0.72699  0.12228  Biso   1.000  H
  H719     1.0000 0.71289  0.72020  0.15658  Biso   1.000  H
  H720     1.0000 0.69639  0.77299  0.12228  Biso   1.000  H
