data_image0
_cell_length_a       16.98
_cell_length_b       22.689
_cell_length_c       21.868
_cell_angle_alpha    90
_cell_angle_beta     90
_cell_angle_gamma    90

_symmetry_space_group_name_H-M    "P 1"
_symmetry_int_tables_number       1

loop_
  _symmetry_equiv_pos_as_xyz
  'x, y, z'

loop_
  _atom_site_label
  _atom_site_occupancy
  _atom_site_fract_x
  _atom_site_fract_y
  _atom_site_fract_z
  _atom_site_thermal_displace_type
  _atom_site_B_iso_or_equiv
  _atom_site_type_symbol
  C1       1.0000 0.83433  0.41650  0.49300  Biso   1.000  C
  C2       1.0000 0.76802  0.38763  0.52904  Biso   1.000  C
  H1       1.0000 0.88051  0.42219  0.52012  Biso   1.000  H
  H2       1.0000 0.81702  0.45582  0.47860  Biso   1.000  H
  C3       1.0000 0.85830  0.37895  0.43804  Biso   1.000  C
  C4       1.0000 0.69682  0.37520  0.48788  Biso   1.000  C
  N1       1.0000 0.74258  0.42677  0.57865  Biso   1.000  N
  H3       1.0000 0.78734  0.34968  0.54678  Biso   1.000  H
  C5       1.0000 0.78869  0.36921  0.39670  Biso   1.000  C
  H4       1.0000 0.90082  0.39900  0.41508  Biso   1.000  H
  H5       1.0000 0.87874  0.34052  0.45240  Biso   1.000  H
  N2       1.0000 0.64011  0.34118  0.52264  Biso   1.000  N
  C6       1.0000 0.72179  0.33950  0.43150  Biso   1.000  C
  H6       1.0000 0.67250  0.41320  0.47462  Biso   1.000  H
  C7       1.0000 0.76890  0.42069  0.63293  Biso   1.000  C
  H7       1.0000 0.80453  0.34418  0.36172  Biso   1.000  H
  H8       1.0000 0.77044  0.40751  0.38042  Biso   1.000  H
  C8       1.0000 0.57674  0.36396  0.54390  Biso   1.000  C
  H9       1.0000 0.73893  0.29979  0.44462  Biso   1.000  H
  H10      1.0000 0.67603  0.33479  0.40392  Biso   1.000  H
  C9       1.0000 0.73581  0.46093  0.68136  Biso   1.000  C
  C10      1.0000 0.82962  0.37639  0.65310  Biso   1.000  C
  C11      1.0000 0.52403  0.32395  0.57943  Biso   1.000  C
  C12      1.0000 0.54988  0.42708  0.53709  Biso   1.000  C
  C13      1.0000 0.75819  0.45445  0.74209  Biso   1.000  C
  C14      1.0000 0.67962  0.50359  0.66609  Biso   1.000  C
  H11      1.0000 0.80442  0.34598  0.67821  Biso   1.000  H
  H12      1.0000 0.87044  0.39632  0.67711  Biso   1.000  H
  H13      1.0000 0.85359  0.35801  0.61702  Biso   1.000  H
  C15      1.0000 0.44358  0.33505  0.58464  Biso   1.000  C
  C16      1.0000 0.55518  0.27432  0.60842  Biso   1.000  C
  H14      1.0000 0.59552  0.45220  0.52840  Biso   1.000  H
  H15      1.0000 0.52473  0.44008  0.57509  Biso   1.000  H
  H16      1.0000 0.51213  0.42990  0.50329  Biso   1.000  H
  H17      1.0000 0.79653  0.42558  0.75261  Biso   1.000  H
  C17      1.0000 0.72521  0.48988  0.78828  Biso   1.000  C
  C18      1.0000 0.64770  0.54039  0.71044  Biso   1.000  C
  H18      1.0000 0.66290  0.50738  0.62479  Biso   1.000  H
  C19      1.0000 0.39452  0.29706  0.61734  Biso   1.000  C
  H19      1.0000 0.42179  0.36899  0.56562  Biso   1.000  H
  C20      1.0000 0.50789  0.23624  0.64203  Biso   1.000  C
  H20      1.0000 0.61001  0.26638  0.60509  Biso   1.000  H
  C21      1.0000 0.67150  0.53321  0.77158  Biso   1.000  C
  C22      1.0000 0.74499  0.47719  0.85353  Biso   1.000  C
  C23      1.0000 0.58793  0.58667  0.69535  Biso   1.000  C
  C24      1.0000 0.30819  0.31006  0.62086  Biso   1.000  C
  C25      1.0000 0.42739  0.24836  0.64656  Biso   1.000  C
  C26      1.0000 0.54081  0.18269  0.67354  Biso   1.000  C
  H21      1.0000 0.65053  0.55851  0.80209  Biso   1.000  H
  N3       1.0000 0.78981  0.43356  0.86336  Biso   1.000  N
  C27      1.0000 0.72250  0.52501  0.89880  Biso   1.000  C
  C28      1.0000 0.68899  0.49998  0.90452  Biso   1.000  C
  N4       1.0000 0.58410  0.63070  0.73175  Biso   1.000  N
  C29      1.0000 0.53681  0.57623  0.63998  Biso   1.000  C
  N5       1.0000 0.27768  0.33347  0.57353  Biso   1.000  N
  C30      1.0000 0.26743  0.29450  0.67926  Biso   1.000  C
  H22      1.0000 0.39458  0.22302  0.66988  Biso   1.000  H
  N6       1.0000 0.49252  0.14126  0.68561  Biso   1.000  N
  C31      1.0000 0.62839  0.18401  0.68808  Biso   1.000  C
  C32      1.0000 0.81360  0.41558  0.92478  Biso   1.000  C
  H23      1.0000 0.66561  0.52360  0.90639  Biso   1.000  H
  H24      1.0000 0.73663  0.56371  0.88211  Biso   1.000  H
  H25      1.0000 0.75071  0.51871  0.93740  Biso   1.000  H
  H26      1.0000 0.68999  0.54321  0.90539  Biso   1.000  H
  H27      1.0000 0.63498  0.48658  0.89601  Biso   1.000  H
  H28      1.0000 0.70589  0.48460  0.94421  Biso   1.000  H
  C33      1.0000 0.52903  0.67971  0.72284  Biso   1.000  C
  H29      1.0000 0.48969  0.60108  0.64249  Biso   1.000  H
  H30      1.0000 0.52120  0.53471  0.63851  Biso   1.000  H
  H31      1.0000 0.56643  0.58619  0.60289  Biso   1.000  H
  C34      1.0000 0.19388  0.34845  0.57024  Biso   1.000  C
  H32      1.0000 0.22091  0.31958  0.68429  Biso   1.000  H
  H33      1.0000 0.30353  0.30067  0.71369  Biso   1.000  H
  H34      1.0000 0.25118  0.25312  0.67802  Biso   1.000  H
  C35      1.0000 0.51832  0.08824  0.71758  Biso   1.000  C
  H35      1.0000 0.63881  0.15999  0.72439  Biso   1.000  H
  H36      1.0000 0.64482  0.22478  0.69581  Biso   1.000  H
  H37      1.0000 0.65813  0.16819  0.65328  Biso   1.000  H
  C36      1.0000 0.80612  0.34845  0.92976  Biso   1.000  C
  H38      1.0000 0.77874  0.43479  0.95569  Biso   1.000  H
  C37      1.0000 0.89853  0.43510  0.93488  Biso   1.000  C
  C38      1.0000 0.47102  0.67971  0.77716  Biso   1.000  C
  H39      1.0000 0.49941  0.67407  0.68369  Biso   1.000  H
  C39      1.0000 0.57650  0.73644  0.71986  Biso   1.000  C
  C40      1.0000 0.16113  0.32694  0.50864  Biso   1.000  C
  H40      1.0000 0.16490  0.32910  0.60458  Biso   1.000  H
  C41      1.0000 0.18640  0.41558  0.57522  Biso   1.000  C
  H41      1.0000 0.57709  0.08802  0.72082  Biso   1.000  H
  C42      1.0000 0.49052  0.03332  0.68337  Biso   1.000  C
  C43      1.0000 0.48168  0.08824  0.78242  Biso   1.000  C
  N7       1.0000 0.72238  0.33347  0.92651  Biso   1.000  N
  H42      1.0000 0.83510  0.32910  0.89542  Biso   1.000  H
  C44      1.0000 0.83893  0.32694  0.99136  Biso   1.000  C
  C45      1.0000 0.93009  0.41289  0.99630  Biso   1.000  C
  H43      1.0000 0.90130  0.47869  0.93392  Biso   1.000  H
  H44      1.0000 0.93192  0.41967  0.90141  Biso   1.000  H
  N8       1.0000 0.41590  0.63070  0.76825  Biso   1.000  N
  H45      1.0000 0.50059  0.67407  0.81631  Biso   1.000  H
  C46      1.0000 0.42350  0.73644  0.78014  Biso   1.000  C
  H46      1.0000 0.60819  0.73639  0.68191  Biso   1.000  H
  H47      1.0000 0.61349  0.73749  0.75489  Biso   1.000  H
  C47      1.0000 0.52591  0.79184  0.72119  Biso   1.000  C
  H48      1.0000 0.19352  0.34307  0.47489  Biso   1.000  H
  H49      1.0000 0.16408  0.28340  0.50681  Biso   1.000  H
  C48      1.0000 0.07580  0.34638  0.50041  Biso   1.000  C
  N9       1.0000 0.21019  0.43356  0.63668  Biso   1.000  N
  H50      1.0000 0.22132  0.43479  0.54431  Biso   1.000  H
  C49      1.0000 0.10153  0.43510  0.56512  Biso   1.000  C
  H51      1.0000 0.43239  0.03420  0.67962  Biso   1.000  H
  H52      1.0000 0.51313  0.03319  0.64162  Biso   1.000  H
  C50      1.0000 0.51531  0.97726  0.71689  Biso   1.000  C
  N10      1.0000 0.50748  0.14126  0.81439  Biso   1.000  N
  H53      1.0000 0.42291  0.08802  0.77922  Biso   1.000  H
  C51      1.0000 0.50948  0.03332  0.81663  Biso   1.000  C
  C52      1.0000 0.69181  0.31006  0.87914  Biso   1.000  C
  H54      1.0000 0.83592  0.28340  0.99319  Biso   1.000  H
  C53      1.0000 0.92420  0.34638  0.99959  Biso   1.000  C
  H55      1.0000 0.80654  0.34307  0.02511  Biso   1.000  H
  H56      1.0000 0.98581  0.42501  0.00101  Biso   1.000  H
  H57      1.0000 0.89941  0.43069  0.03000  Biso   1.000  H
  C54      1.0000 0.41213  0.58667  0.80465  Biso   1.000  C
  H58      1.0000 0.39181  0.73639  0.81809  Biso   1.000  H
  H59      1.0000 0.38651  0.73749  0.74511  Biso   1.000  H
  C55      1.0000 0.47409  0.79184  0.77881  Biso   1.000  C
  H60      1.0000 0.49223  0.79320  0.68429  Biso   1.000  H
  H61      1.0000 0.56019  0.82718  0.72110  Biso   1.000  H
  H62      1.0000 0.05601  0.33258  0.46031  Biso   1.000  H
  H63      1.0000 0.04270  0.32862  0.53279  Biso   1.000  H
  C56      1.0000 0.06991  0.41289  0.50370  Biso   1.000  C
  C57      1.0000 0.25501  0.47719  0.64647  Biso   1.000  C
  H64      1.0000 0.09870  0.47869  0.56612  Biso   1.000  H
  H65      1.0000 0.06808  0.41967  0.59859  Biso   1.000  H
  H66      1.0000 0.57350  0.97439  0.71712  Biso   1.000  H
  H67      1.0000 0.49441  0.94239  0.69499  Biso   1.000  H
  C58      1.0000 0.48469  0.97726  0.78311  Biso   1.000  C
  C59      1.0000 0.45919  0.18269  0.82646  Biso   1.000  C
  H68      1.0000 0.56761  0.03420  0.82042  Biso   1.000  H
  H69      1.0000 0.48693  0.03319  0.85842  Biso   1.000  H
  C60      1.0000 0.60554  0.29706  0.88266  Biso   1.000  C
  C61      1.0000 0.73263  0.29450  0.82074  Biso   1.000  C
  H70      1.0000 0.95730  0.32862  0.96721  Biso   1.000  H
  H71      1.0000 0.94399  0.33258  0.03969  Biso   1.000  H
  C62      1.0000 0.35230  0.54039  0.78956  Biso   1.000  C
  C63      1.0000 0.46319  0.57623  0.86002  Biso   1.000  C
  H72      1.0000 0.50783  0.79320  0.81571  Biso   1.000  H
  H73      1.0000 0.43981  0.82718  0.77890  Biso   1.000  H
  H74      1.0000 0.01419  0.42501  0.49899  Biso   1.000  H
  H75      1.0000 0.10059  0.43069  0.47000  Biso   1.000  H
  C64      1.0000 0.27479  0.48988  0.71177  Biso   1.000  C
  C65      1.0000 0.27750  0.52501  0.60120  Biso   1.000  C
  C66      1.0000 0.31101  0.49998  0.59548  Biso   1.000  C
  H76      1.0000 0.42650  0.97439  0.78292  Biso   1.000  H
  H77      1.0000 0.50559  0.94239  0.80501  Biso   1.000  H
  C67      1.0000 0.49211  0.23624  0.85801  Biso   1.000  C
  C68      1.0000 0.37161  0.18401  0.81196  Biso   1.000  C
  C69      1.0000 0.57261  0.24836  0.85348  Biso   1.000  C
  C70      1.0000 0.55642  0.33505  0.91540  Biso   1.000  C
  H78      1.0000 0.77909  0.31958  0.81571  Biso   1.000  H
  H79      1.0000 0.69653  0.30067  0.78631  Biso   1.000  H
  H80      1.0000 0.74882  0.25312  0.82202  Biso   1.000  H
  C71      1.0000 0.32850  0.53321  0.72842  Biso   1.000  C
  C72      1.0000 0.32038  0.50359  0.83391  Biso   1.000  C
  H81      1.0000 0.51031  0.60108  0.85751  Biso   1.000  H
  H82      1.0000 0.47880  0.53471  0.86149  Biso   1.000  H
  H83      1.0000 0.43363  0.58619  0.89711  Biso   1.000  H
  C73      1.0000 0.24181  0.45445  0.75791  Biso   1.000  C
  H84      1.0000 0.33439  0.52360  0.59361  Biso   1.000  H
  H85      1.0000 0.26343  0.56371  0.61789  Biso   1.000  H
  H86      1.0000 0.24929  0.51871  0.56260  Biso   1.000  H
  H87      1.0000 0.31001  0.54321  0.59461  Biso   1.000  H
  H88      1.0000 0.36502  0.48658  0.60399  Biso   1.000  H
  H89      1.0000 0.29411  0.48460  0.55579  Biso   1.000  H
  C74      1.0000 0.44482  0.27432  0.89158  Biso   1.000  C
  H90      1.0000 0.36119  0.15999  0.77561  Biso   1.000  H
  H91      1.0000 0.35518  0.22478  0.80419  Biso   1.000  H
  H92      1.0000 0.34193  0.16819  0.84672  Biso   1.000  H
  H93      1.0000 0.60542  0.22302  0.83012  Biso   1.000  H
  C75      1.0000 0.47603  0.32395  0.92061  Biso   1.000  C
  H94      1.0000 0.57821  0.36899  0.93442  Biso   1.000  H
  H95      1.0000 0.34953  0.55851  0.69791  Biso   1.000  H
  C76      1.0000 0.26419  0.46093  0.81864  Biso   1.000  C
  H96      1.0000 0.33710  0.50738  0.87521  Biso   1.000  H
  H97      1.0000 0.20347  0.42558  0.74739  Biso   1.000  H
  H98      1.0000 0.38999  0.26638  0.89491  Biso   1.000  H
  C77      1.0000 0.42332  0.36396  0.95610  Biso   1.000  C
  C78      1.0000 0.23110  0.42069  0.86707  Biso   1.000  C
  N11      1.0000 0.35995  0.34118  0.97736  Biso   1.000  N
  C79      1.0000 0.45012  0.42708  0.96291  Biso   1.000  C
  N12      1.0000 0.25742  0.42677  0.92135  Biso   1.000  N
  C80      1.0000 0.17038  0.37639  0.84690  Biso   1.000  C
  C81      1.0000 0.30318  0.37520  0.01212  Biso   1.000  C
  H99      1.0000 0.40453  0.45220  0.97160  Biso   1.000  H
  H100     1.0000 0.47532  0.44008  0.92491  Biso   1.000  H
  H101     1.0000 0.48793  0.42990  0.99671  Biso   1.000  H
  C82      1.0000 0.23198  0.38763  0.97096  Biso   1.000  C
  H102     1.0000 0.19558  0.34598  0.82179  Biso   1.000  H
  H103     1.0000 0.12962  0.39632  0.82289  Biso   1.000  H
  H104     1.0000 0.14641  0.35801  0.88303  Biso   1.000  H
  C83      1.0000 0.27821  0.33950  0.06850  Biso   1.000  C
  H105     1.0000 0.32750  0.41320  0.02543  Biso   1.000  H
  H106     1.0000 0.21272  0.34968  0.95322  Biso   1.000  H
  C84      1.0000 0.16572  0.41650  0.00700  Biso   1.000  C
  C85      1.0000 0.21131  0.36921  0.10330  Biso   1.000  C
  H107     1.0000 0.26113  0.29979  0.05542  Biso   1.000  H
  H108     1.0000 0.32403  0.33479  0.09612  Biso   1.000  H
  H109     1.0000 0.11949  0.42219  0.97993  Biso   1.000  H
  H110     1.0000 0.18298  0.45582  0.02140  Biso   1.000  H
  C86      1.0000 0.14170  0.37895  0.06196  Biso   1.000  C
  H111     1.0000 0.19552  0.34418  0.13828  Biso   1.000  H
  H112     1.0000 0.22962  0.40751  0.11963  Biso   1.000  H
  H113     1.0000 0.09918  0.39900  0.08492  Biso   1.000  H
  H114     1.0000 0.12132  0.34052  0.04760  Biso   1.000  H
  C87      1.0000 0.83433  0.58350  0.50700  Biso   1.000  C
  C88      1.0000 0.76802  0.61232  0.47096  Biso   1.000  C
  H115     1.0000 0.88051  0.57781  0.47993  Biso   1.000  H
  H116     1.0000 0.81702  0.54418  0.52140  Biso   1.000  H
  C89      1.0000 0.85830  0.62105  0.56196  Biso   1.000  C
  N13      1.0000 0.74258  0.57323  0.42135  Biso   1.000  N
  H117     1.0000 0.78734  0.65027  0.45322  Biso   1.000  H
  C90      1.0000 0.69682  0.62480  0.51212  Biso   1.000  C
  H118     1.0000 0.90082  0.60100  0.58492  Biso   1.000  H
  H119     1.0000 0.87874  0.65948  0.54760  Biso   1.000  H
  C91      1.0000 0.78869  0.63079  0.60330  Biso   1.000  C
  C92      1.0000 0.76890  0.57927  0.36707  Biso   1.000  C
  N14      1.0000 0.64011  0.65882  0.47736  Biso   1.000  N
  C93      1.0000 0.72179  0.66045  0.56850  Biso   1.000  C
  H120     1.0000 0.67250  0.58680  0.52538  Biso   1.000  H
  H121     1.0000 0.80453  0.65578  0.63828  Biso   1.000  H
  H122     1.0000 0.77044  0.59249  0.61958  Biso   1.000  H
  C94      1.0000 0.73581  0.53907  0.31864  Biso   1.000  C
  C95      1.0000 0.82962  0.62361  0.34690  Biso   1.000  C
  C96      1.0000 0.57674  0.63599  0.45610  Biso   1.000  C
  H123     1.0000 0.73893  0.70021  0.55542  Biso   1.000  H
  H124     1.0000 0.67603  0.66521  0.59612  Biso   1.000  H
  C97      1.0000 0.67962  0.49641  0.33391  Biso   1.000  C
  C98      1.0000 0.75819  0.54555  0.25791  Biso   1.000  C
  H125     1.0000 0.80442  0.65397  0.32179  Biso   1.000  H
  H126     1.0000 0.87044  0.60368  0.32289  Biso   1.000  H
  H127     1.0000 0.85359  0.64199  0.38298  Biso   1.000  H
  C99      1.0000 0.52403  0.67605  0.42061  Biso   1.000  C
  C100     1.0000 0.54988  0.57292  0.46291  Biso   1.000  C
  C101     1.0000 0.64770  0.45956  0.28956  Biso   1.000  C
  H128     1.0000 0.66290  0.49257  0.37521  Biso   1.000  H
  C102     1.0000 0.72521  0.51012  0.21177  Biso   1.000  C
  H129     1.0000 0.79653  0.57438  0.24739  Biso   1.000  H
  C103     1.0000 0.44358  0.66495  0.41540  Biso   1.000  C
  C104     1.0000 0.55518  0.72568  0.39158  Biso   1.000  C
  H130     1.0000 0.59552  0.54780  0.47160  Biso   1.000  H
  H131     1.0000 0.52473  0.55987  0.42491  Biso   1.000  H
  H132     1.0000 0.51213  0.57010  0.49671  Biso   1.000  H
  C105     1.0000 0.58793  0.41328  0.30465  Biso   1.000  C
  C106     1.0000 0.67150  0.46679  0.22842  Biso   1.000  C
  C107     1.0000 0.74499  0.52276  0.14647  Biso   1.000  C
  C108     1.0000 0.39452  0.70294  0.38266  Biso   1.000  C
  H133     1.0000 0.42179  0.63101  0.43442  Biso   1.000  H
  C109     1.0000 0.50789  0.76376  0.35801  Biso   1.000  C
  H134     1.0000 0.61001  0.73357  0.39491  Biso   1.000  H
  N15      1.0000 0.58410  0.36930  0.26825  Biso   1.000  N
  C110     1.0000 0.53681  0.42373  0.36002  Biso   1.000  C
  H135     1.0000 0.65053  0.44149  0.19791  Biso   1.000  H
  N16      1.0000 0.78981  0.56644  0.13664  Biso   1.000  N
  C111     1.0000 0.72250  0.47499  0.10120  Biso   1.000  C
  C112     1.0000 0.68899  0.49998  0.09548  Biso   1.000  C
  C113     1.0000 0.30819  0.68994  0.37914  Biso   1.000  C
  C114     1.0000 0.42739  0.75160  0.35344  Biso   1.000  C
  C115     1.0000 0.54081  0.81731  0.32646  Biso   1.000  C
  C116     1.0000 0.52903  0.32029  0.27716  Biso   1.000  C
  H136     1.0000 0.48969  0.39892  0.35751  Biso   1.000  H
  H137     1.0000 0.52120  0.46529  0.36149  Biso   1.000  H
  H138     1.0000 0.56643  0.41381  0.39711  Biso   1.000  H
  C117     1.0000 0.81360  0.58442  0.07522  Biso   1.000  C
  H139     1.0000 0.66561  0.47640  0.09361  Biso   1.000  H
  H140     1.0000 0.73663  0.43629  0.11789  Biso   1.000  H
  H141     1.0000 0.75071  0.48129  0.06260  Biso   1.000  H
  H142     1.0000 0.68999  0.45679  0.09461  Biso   1.000  H
  H143     1.0000 0.63498  0.51338  0.10399  Biso   1.000  H
  H144     1.0000 0.70589  0.51540  0.05579  Biso   1.000  H
  N17      1.0000 0.27768  0.66653  0.42651  Biso   1.000  N
  C118     1.0000 0.26743  0.70545  0.32074  Biso   1.000  C
  H145     1.0000 0.39458  0.77698  0.33012  Biso   1.000  H
  N18      1.0000 0.49252  0.85874  0.31439  Biso   1.000  N
  C119     1.0000 0.62839  0.81599  0.31196  Biso   1.000  C
  C120     1.0000 0.47102  0.32029  0.22284  Biso   1.000  C
  H146     1.0000 0.49941  0.32588  0.31631  Biso   1.000  H
  C121     1.0000 0.57650  0.26356  0.28014  Biso   1.000  C
  C122     1.0000 0.80612  0.65155  0.07024  Biso   1.000  C
  H147     1.0000 0.77874  0.56521  0.04431  Biso   1.000  H
  C123     1.0000 0.89853  0.56490  0.06512  Biso   1.000  C
  C124     1.0000 0.19388  0.65155  0.42976  Biso   1.000  C
  H148     1.0000 0.22091  0.68037  0.31571  Biso   1.000  H
  H149     1.0000 0.30353  0.69928  0.28631  Biso   1.000  H
  H150     1.0000 0.25118  0.74688  0.32202  Biso   1.000  H
  C125     1.0000 0.51832  0.91176  0.28242  Biso   1.000  C
  H151     1.0000 0.63881  0.84001  0.27561  Biso   1.000  H
  H152     1.0000 0.64482  0.77518  0.30419  Biso   1.000  H
  H153     1.0000 0.65813  0.83177  0.34672  Biso   1.000  H
  C126     1.0000 0.42350  0.26356  0.21986  Biso   1.000  C
  N19      1.0000 0.41590  0.36930  0.23175  Biso   1.000  N
  H154     1.0000 0.50059  0.32588  0.18369  Biso   1.000  H
  C127     1.0000 0.52591  0.20816  0.27881  Biso   1.000  C
  H155     1.0000 0.60819  0.26361  0.31809  Biso   1.000  H
  H156     1.0000 0.61349  0.26251  0.24511  Biso   1.000  H
  N20      1.0000 0.72238  0.66653  0.07353  Biso   1.000  N
  H157     1.0000 0.83510  0.67090  0.10458  Biso   1.000  H
  C128     1.0000 0.83893  0.67301  0.00864  Biso   1.000  C
  C129     1.0000 0.93009  0.58711  0.00370  Biso   1.000  C
  H158     1.0000 0.90130  0.52131  0.06608  Biso   1.000  H
  H159     1.0000 0.93192  0.58028  0.09859  Biso   1.000  H
  C130     1.0000 0.18640  0.58442  0.42478  Biso   1.000  C
  H160     1.0000 0.16490  0.67090  0.39542  Biso   1.000  H
  C131     1.0000 0.16113  0.67301  0.49136  Biso   1.000  C
  C132     1.0000 0.48168  0.91176  0.21758  Biso   1.000  C
  H161     1.0000 0.57709  0.91198  0.27922  Biso   1.000  H
  C133     1.0000 0.49052  0.96668  0.31663  Biso   1.000  C
  H162     1.0000 0.39181  0.26361  0.18191  Biso   1.000  H
  H163     1.0000 0.38651  0.26251  0.25489  Biso   1.000  H
  C134     1.0000 0.47409  0.20816  0.22119  Biso   1.000  C
  C135     1.0000 0.41213  0.41328  0.19535  Biso   1.000  C
  H164     1.0000 0.49223  0.20680  0.31571  Biso   1.000  H
  H165     1.0000 0.56019  0.17282  0.27890  Biso   1.000  H
  C136     1.0000 0.69181  0.68994  0.12086  Biso   1.000  C
  H166     1.0000 0.83592  0.71660  0.00681  Biso   1.000  H
  C137     1.0000 0.92420  0.65358  0.00041  Biso   1.000  C
  H167     1.0000 0.80654  0.65688  0.97489  Biso   1.000  H
  H168     1.0000 0.98581  0.57499  0.99899  Biso   1.000  H
  H169     1.0000 0.89941  0.56931  0.97000  Biso   1.000  H
  N21      1.0000 0.21019  0.56644  0.36336  Biso   1.000  N
  H170     1.0000 0.22132  0.56521  0.45569  Biso   1.000  H
  C138     1.0000 0.10153  0.56490  0.43488  Biso   1.000  C
  C139     1.0000 0.07580  0.65358  0.49959  Biso   1.000  C
  H171     1.0000 0.19352  0.65688  0.52511  Biso   1.000  H
  H172     1.0000 0.16408  0.71660  0.49319  Biso   1.000  H
  N22      1.0000 0.50748  0.85874  0.18561  Biso   1.000  N
  H173     1.0000 0.42291  0.91198  0.22078  Biso   1.000  H
  C140     1.0000 0.50948  0.96668  0.18337  Biso   1.000  C
  H174     1.0000 0.43239  0.96580  0.32042  Biso   1.000  H
  H175     1.0000 0.51313  0.96677  0.35842  Biso   1.000  H
  C141     1.0000 0.51531  0.02270  0.28311  Biso   1.000  C
  H176     1.0000 0.50783  0.20680  0.18429  Biso   1.000  H
  H177     1.0000 0.43981  0.17282  0.22110  Biso   1.000  H
  C142     1.0000 0.35230  0.45956  0.21044  Biso   1.000  C
  C143     1.0000 0.46319  0.42373  0.13998  Biso   1.000  C
  C144     1.0000 0.60554  0.70294  0.11734  Biso   1.000  C
  C145     1.0000 0.73263  0.70545  0.17926  Biso   1.000  C
  H178     1.0000 0.95730  0.67138  0.03279  Biso   1.000  H
  H179     1.0000 0.94399  0.66737  0.96031  Biso   1.000  H
  C146     1.0000 0.25501  0.52276  0.35353  Biso   1.000  C
  C147     1.0000 0.06991  0.58711  0.49630  Biso   1.000  C
  H180     1.0000 0.09870  0.52131  0.43392  Biso   1.000  H
  H181     1.0000 0.06808  0.58028  0.40141  Biso   1.000  H
  H182     1.0000 0.05601  0.66737  0.53969  Biso   1.000  H
  H183     1.0000 0.04270  0.67138  0.46721  Biso   1.000  H
  C148     1.0000 0.45919  0.81731  0.17354  Biso   1.000  C
  H184     1.0000 0.56761  0.96580  0.17962  Biso   1.000  H
  H185     1.0000 0.48693  0.96677  0.14162  Biso   1.000  H
  C149     1.0000 0.48469  0.02270  0.21689  Biso   1.000  C
  H186     1.0000 0.57350  0.02561  0.28288  Biso   1.000  H
  H187     1.0000 0.49441  0.05761  0.30501  Biso   1.000  H
  C150     1.0000 0.32850  0.46679  0.27158  Biso   1.000  C
  C151     1.0000 0.32038  0.49641  0.16609  Biso   1.000  C
  H188     1.0000 0.51031  0.39892  0.14249  Biso   1.000  H
  H189     1.0000 0.47880  0.46529  0.13851  Biso   1.000  H
  H190     1.0000 0.43363  0.41381  0.10289  Biso   1.000  H
  C152     1.0000 0.55642  0.66495  0.08460  Biso   1.000  C
  C153     1.0000 0.57261  0.75160  0.14656  Biso   1.000  C
  H191     1.0000 0.77909  0.68037  0.18429  Biso   1.000  H
  H192     1.0000 0.69653  0.69928  0.21369  Biso   1.000  H
  H193     1.0000 0.74882  0.74688  0.17802  Biso   1.000  H
  C154     1.0000 0.27479  0.51012  0.28823  Biso   1.000  C
  C155     1.0000 0.27750  0.47499  0.39880  Biso   1.000  C
  C156     1.0000 0.31101  0.49998  0.40452  Biso   1.000  C
  H194     1.0000 0.01419  0.57499  0.50101  Biso   1.000  H
  H195     1.0000 0.10059  0.56931  0.53000  Biso   1.000  H
  C157     1.0000 0.49211  0.76376  0.14199  Biso   1.000  C
  C158     1.0000 0.37161  0.81599  0.18808  Biso   1.000  C
  H196     1.0000 0.42650  0.02561  0.21712  Biso   1.000  H
  H197     1.0000 0.50559  0.05761  0.19499  Biso   1.000  H
  H198     1.0000 0.34953  0.44149  0.30209  Biso   1.000  H
  C159     1.0000 0.26419  0.53907  0.18136  Biso   1.000  C
  H199     1.0000 0.33710  0.49257  0.12479  Biso   1.000  H
  C160     1.0000 0.47603  0.67605  0.07943  Biso   1.000  C
  H200     1.0000 0.57821  0.63101  0.06562  Biso   1.000  H
  H201     1.0000 0.60542  0.77698  0.16988  Biso   1.000  H
  C161     1.0000 0.24181  0.54555  0.24209  Biso   1.000  C
  H202     1.0000 0.33439  0.47640  0.40639  Biso   1.000  H
  H203     1.0000 0.26343  0.43629  0.38211  Biso   1.000  H
  H204     1.0000 0.24929  0.48129  0.43740  Biso   1.000  H
  H205     1.0000 0.31001  0.45679  0.40539  Biso   1.000  H
  H206     1.0000 0.36502  0.51338  0.39601  Biso   1.000  H
  H207     1.0000 0.29411  0.51540  0.44421  Biso   1.000  H
  C162     1.0000 0.44482  0.72568  0.10842  Biso   1.000  C
  H208     1.0000 0.36119  0.84001  0.22439  Biso   1.000  H
  H209     1.0000 0.35518  0.77518  0.19581  Biso   1.000  H
  H210     1.0000 0.34193  0.83177  0.15328  Biso   1.000  H
  C163     1.0000 0.23110  0.57927  0.13293  Biso   1.000  C
  C164     1.0000 0.42332  0.63599  0.04390  Biso   1.000  C
  H211     1.0000 0.20347  0.57438  0.25261  Biso   1.000  H
  H212     1.0000 0.38999  0.73357  0.10509  Biso   1.000  H
  N23      1.0000 0.25742  0.57323  0.07865  Biso   1.000  N
  C165     1.0000 0.17038  0.62361  0.15310  Biso   1.000  C
  N24      1.0000 0.35995  0.65882  0.02264  Biso   1.000  N
  C166     1.0000 0.45012  0.57292  0.03709  Biso   1.000  C
  C167     1.0000 0.23198  0.61232  0.02904  Biso   1.000  C
  H213     1.0000 0.19558  0.65397  0.17821  Biso   1.000  H
  H214     1.0000 0.12962  0.60368  0.17711  Biso   1.000  H
  H215     1.0000 0.14641  0.64199  0.11702  Biso   1.000  H
  C168     1.0000 0.30318  0.62480  0.98788  Biso   1.000  C
  H216     1.0000 0.40453  0.54780  0.02840  Biso   1.000  H
  H217     1.0000 0.47532  0.55987  0.07509  Biso   1.000  H
  H218     1.0000 0.48793  0.57010  0.00329  Biso   1.000  H
  H219     1.0000 0.21272  0.65027  0.04678  Biso   1.000  H
  C169     1.0000 0.16572  0.58350  0.99300  Biso   1.000  C
  C170     1.0000 0.27821  0.66045  0.93150  Biso   1.000  C
  H220     1.0000 0.32750  0.58680  0.97462  Biso   1.000  H
  H221     1.0000 0.11949  0.57781  0.02012  Biso   1.000  H
  H222     1.0000 0.18298  0.54418  0.97860  Biso   1.000  H
  C171     1.0000 0.14170  0.62105  0.93804  Biso   1.000  C
  C172     1.0000 0.21131  0.63079  0.89670  Biso   1.000  C
  H223     1.0000 0.26113  0.70021  0.94462  Biso   1.000  H
  H224     1.0000 0.32403  0.66521  0.90388  Biso   1.000  H
  H225     1.0000 0.09918  0.60100  0.91508  Biso   1.000  H
  H226     1.0000 0.12132  0.65948  0.95240  Biso   1.000  H
  H227     1.0000 0.19552  0.65578  0.86172  Biso   1.000  H
  H228     1.0000 0.22962  0.59249  0.88042  Biso   1.000  H
  C173     1.0000 0.99052  0.53330  0.68337  Biso   1.000  C
  C174     1.0000 0.01832  0.58821  0.71758  Biso   1.000  C
  H229     1.0000 0.93239  0.53418  0.67962  Biso   1.000  H
  C175     1.0000 0.01531  0.47728  0.71689  Biso   1.000  C
  H230     1.0000 0.01313  0.53321  0.64162  Biso   1.000  H
  N25      1.0000 0.99252  0.64124  0.68561  Biso   1.000  N
  C176     1.0000 0.98168  0.58821  0.78242  Biso   1.000  C
  C177     1.0000 0.98174  0.58821  0.78242  Biso   1.000  C
  H231     1.0000 0.07709  0.58799  0.72082  Biso   1.000  H
  H232     1.0000 0.99441  0.44237  0.69499  Biso   1.000  H
  C178     1.0000 0.98469  0.47728  0.78311  Biso   1.000  C
  C179     1.0000 0.98475  0.47728  0.78311  Biso   1.000  C
  H233     1.0000 0.07350  0.47441  0.71712  Biso   1.000  H
  C180     1.0000 0.04081  0.68267  0.67354  Biso   1.000  C
  H234     1.0000 0.92291  0.58799  0.77922  Biso   1.000  H
  N26      1.0000 0.00748  0.64124  0.81439  Biso   1.000  N
  C181     1.0000 0.00948  0.53330  0.81663  Biso   1.000  C
  C182     1.0000 0.00954  0.53330  0.81663  Biso   1.000  C
  H235     1.0000 0.92650  0.47441  0.78292  Biso   1.000  H
  H236     1.0000 0.00559  0.44237  0.80501  Biso   1.000  H
  C183     1.0000 0.00789  0.73622  0.64203  Biso   1.000  C
  C184     1.0000 0.12839  0.68399  0.68808  Biso   1.000  C
  C185     1.0000 0.12845  0.68399  0.68808  Biso   1.000  C
  C186     1.0000 0.95919  0.68267  0.82646  Biso   1.000  C
  C187     1.0000 0.95925  0.68267  0.82646  Biso   1.000  C
  H237     1.0000 0.98693  0.53321  0.85842  Biso   1.000  H
  H238     1.0000 0.06761  0.53418  0.82042  Biso   1.000  H
  C188     1.0000 0.92744  0.74838  0.64656  Biso   1.000  C
  C189     1.0000 0.05524  0.77430  0.60842  Biso   1.000  C
  H239     1.0000 0.13881  0.66001  0.72439  Biso   1.000  H
  H240     1.0000 0.14482  0.72480  0.69581  Biso   1.000  H
  H241     1.0000 0.15813  0.66821  0.65328  Biso   1.000  H
  C190     1.0000 0.99211  0.73622  0.85801  Biso   1.000  C
  C191     1.0000 0.87161  0.68399  0.81196  Biso   1.000  C
  C192     1.0000 0.89452  0.79704  0.61734  Biso   1.000  C
  H242     1.0000 0.89458  0.72299  0.66988  Biso   1.000  H
  H243     1.0000 0.89464  0.72299  0.66988  Biso   1.000  H
  C193     1.0000 0.02403  0.82392  0.57943  Biso   1.000  C
  H244     1.0000 0.11001  0.76641  0.60509  Biso   1.000  H
  C194     1.0000 0.94482  0.77430  0.89158  Biso   1.000  C
  C195     1.0000 0.07261  0.74838  0.85348  Biso   1.000  C
  H245     1.0000 0.86119  0.66001  0.77561  Biso   1.000  H
  H246     1.0000 0.85524  0.72480  0.80419  Biso   1.000  H
  H247     1.0000 0.84193  0.66821  0.84672  Biso   1.000  H
  C196     1.0000 0.80819  0.81004  0.62086  Biso   1.000  C
  C197     1.0000 0.94358  0.83503  0.58464  Biso   1.000  C
  C198     1.0000 0.94364  0.83503  0.58464  Biso   1.000  C
  C199     1.0000 0.07668  0.86399  0.54390  Biso   1.000  C
  C200     1.0000 0.07674  0.86399  0.54390  Biso   1.000  C
  C201     1.0000 0.97597  0.82392  0.92061  Biso   1.000  C
  C202     1.0000 0.97603  0.82392  0.92061  Biso   1.000  C
  H248     1.0000 0.88999  0.76641  0.89491  Biso   1.000  H
  H249     1.0000 0.10542  0.72299  0.83012  Biso   1.000  H
  C203     1.0000 0.10554  0.79704  0.88266  Biso   1.000  C
  N27      1.0000 0.77768  0.83344  0.57353  Biso   1.000  N
  C204     1.0000 0.76737  0.79453  0.67926  Biso   1.000  C
  C205     1.0000 0.76743  0.79453  0.67926  Biso   1.000  C
  H250     1.0000 0.92179  0.86897  0.56562  Biso   1.000  H
  N28      1.0000 0.14005  0.84116  0.52264  Biso   1.000  N
  N29      1.0000 0.14011  0.84116  0.52264  Biso   1.000  N
  C206     1.0000 0.04994  0.92706  0.53709  Biso   1.000  C
  C207     1.0000 0.92332  0.86399  0.95610  Biso   1.000  C
  C208     1.0000 0.05642  0.83503  0.91540  Biso   1.000  C
  C209     1.0000 0.19181  0.81004  0.87914  Biso   1.000  C
  C210     1.0000 0.69393  0.84843  0.57024  Biso   1.000  C
  H251     1.0000 0.72091  0.81960  0.68429  Biso   1.000  H
  H252     1.0000 0.80353  0.80070  0.71369  Biso   1.000  H
  H253     1.0000 0.75124  0.75310  0.67802  Biso   1.000  H
  C211     1.0000 0.19682  0.87518  0.48788  Biso   1.000  C
  H254     1.0000 0.09552  0.95218  0.52840  Biso   1.000  H
  H255     1.0000 0.01207  0.92988  0.50329  Biso   1.000  H
  H256     1.0000 0.02473  0.94010  0.57509  Biso   1.000  H
  H257     1.0000 0.01213  0.92988  0.50329  Biso   1.000  H
  N30      1.0000 0.85995  0.84116  0.97736  Biso   1.000  N
  C212     1.0000 0.95012  0.92706  0.96291  Biso   1.000  C
  H258     1.0000 0.07821  0.86897  0.93442  Biso   1.000  H
  N31      1.0000 0.22232  0.83344  0.92651  Biso   1.000  N
  C213     1.0000 0.23263  0.79453  0.82074  Biso   1.000  C
  N32      1.0000 0.22238  0.83344  0.92651  Biso   1.000  N
  C214     1.0000 0.66107  0.82696  0.50864  Biso   1.000  C
  C215     1.0000 0.66113  0.82696  0.50864  Biso   1.000  C
  C216     1.0000 0.68640  0.91560  0.57522  Biso   1.000  C
  H259     1.0000 0.66490  0.82908  0.60458  Biso   1.000  H
  C217     1.0000 0.26802  0.88765  0.52904  Biso   1.000  C
  C218     1.0000 0.22179  0.83953  0.43150  Biso   1.000  C
  H260     1.0000 0.17250  0.91317  0.47462  Biso   1.000  H
  C219     1.0000 0.22185  0.83953  0.43150  Biso   1.000  C
  C220     1.0000 0.80324  0.87518  0.01212  Biso   1.000  C
  H261     1.0000 0.97532  0.94010  0.92491  Biso   1.000  H
  H262     1.0000 0.98793  0.92988  0.99671  Biso   1.000  H
  H263     1.0000 0.90453  0.95218  0.97160  Biso   1.000  H
  C221     1.0000 0.30612  0.84843  0.92976  Biso   1.000  C
  H264     1.0000 0.19653  0.80070  0.78631  Biso   1.000  H
  H265     1.0000 0.24882  0.75310  0.82202  Biso   1.000  H
  H266     1.0000 0.27915  0.81960  0.81571  Biso   1.000  H
  C222     1.0000 0.57580  0.84640  0.50041  Biso   1.000  C
  H267     1.0000 0.69352  0.84310  0.47489  Biso   1.000  H
  H268     1.0000 0.66413  0.78338  0.50681  Biso   1.000  H
  C223     1.0000 0.60147  0.93508  0.56512  Biso   1.000  C
  C224     1.0000 0.60153  0.93508  0.56512  Biso   1.000  C
  H269     1.0000 0.72132  0.93477  0.54431  Biso   1.000  H
  N33      1.0000 0.71019  0.93354  0.63668  Biso   1.000  N
  N34      1.0000 0.71025  0.93354  0.63668  Biso   1.000  N
  N35      1.0000 0.24258  0.92675  0.57865  Biso   1.000  N
  H270     1.0000 0.28728  0.84971  0.54678  Biso   1.000  H
  C225     1.0000 0.33433  0.91648  0.49300  Biso   1.000  C
  H271     1.0000 0.28734  0.84971  0.54678  Biso   1.000  H
  H272     1.0000 0.23893  0.79977  0.44462  Biso   1.000  H
  H273     1.0000 0.17603  0.83481  0.40392  Biso   1.000  H
  C226     1.0000 0.28875  0.86919  0.39670  Biso   1.000  C
  C227     1.0000 0.73204  0.88765  0.97096  Biso   1.000  C
  C228     1.0000 0.77821  0.83953  0.06850  Biso   1.000  C
  H274     1.0000 0.82750  0.91317  0.02543  Biso   1.000  H
  C229     1.0000 0.31360  0.91560  0.92478  Biso   1.000  C
  H275     1.0000 0.33510  0.82908  0.89542  Biso   1.000  H
  C230     1.0000 0.33893  0.82696  0.99136  Biso   1.000  C
  H276     1.0000 0.55601  0.83261  0.46031  Biso   1.000  H
  H277     1.0000 0.54270  0.82860  0.53279  Biso   1.000  H
  C231     1.0000 0.56991  0.91291  0.50370  Biso   1.000  C
  H278     1.0000 0.59870  0.97867  0.56612  Biso   1.000  H
  H279     1.0000 0.56814  0.91970  0.59859  Biso   1.000  H
  C232     1.0000 0.75501  0.97721  0.64647  Biso   1.000  C
  C233     1.0000 0.26890  0.92071  0.63293  Biso   1.000  C
  H280     1.0000 0.38051  0.92221  0.52012  Biso   1.000  H
  H281     1.0000 0.31702  0.95579  0.47860  Biso   1.000  H
  C234     1.0000 0.35830  0.87893  0.43804  Biso   1.000  C
  H282     1.0000 0.30453  0.84420  0.36172  Biso   1.000  H
  H283     1.0000 0.27044  0.90749  0.38042  Biso   1.000  H
  N36      1.0000 0.75748  0.92675  0.92135  Biso   1.000  N
  H284     1.0000 0.71272  0.84971  0.95322  Biso   1.000  H
  C235     1.0000 0.66572  0.91648  0.00700  Biso   1.000  C
  C236     1.0000 0.71131  0.86919  0.10330  Biso   1.000  C
  H285     1.0000 0.82397  0.83481  0.09612  Biso   1.000  H
  H286     1.0000 0.76113  0.79977  0.05542  Biso   1.000  H
  H287     1.0000 0.82403  0.83481  0.09612  Biso   1.000  H
  N37      1.0000 0.28981  0.93354  0.86336  Biso   1.000  N
  H288     1.0000 0.27868  0.93477  0.95569  Biso   1.000  H
  C237     1.0000 0.39853  0.93508  0.93488  Biso   1.000  C
  H289     1.0000 0.27874  0.93477  0.95569  Biso   1.000  H
  H290     1.0000 0.33592  0.78338  0.99319  Biso   1.000  H
  C238     1.0000 0.42420  0.84640  0.99959  Biso   1.000  C
  H291     1.0000 0.30654  0.84310  0.02511  Biso   1.000  H
  H292     1.0000 0.51419  0.92499  0.49899  Biso   1.000  H
  H293     1.0000 0.60059  0.93067  0.47000  Biso   1.000  H
  C239     1.0000 0.77479  0.98986  0.71177  Biso   1.000  C
  C240     1.0000 0.77750  0.02499  0.60120  Biso   1.000  C
  C241     1.0000 0.81101  0.00000  0.59548  Biso   1.000  C
  C242     1.0000 0.23581  0.96091  0.68136  Biso   1.000  C
  C243     1.0000 0.32962  0.87637  0.65310  Biso   1.000  C
  H294     1.0000 0.40082  0.89898  0.41508  Biso   1.000  H
  H295     1.0000 0.37868  0.84050  0.45240  Biso   1.000  H
  H296     1.0000 0.37874  0.84050  0.45240  Biso   1.000  H
  C244     1.0000 0.73110  0.92071  0.86707  Biso   1.000  C
  H297     1.0000 0.61949  0.92221  0.97993  Biso   1.000  H
  H298     1.0000 0.68298  0.95579  0.02140  Biso   1.000  H
  C245     1.0000 0.64170  0.87893  0.06196  Biso   1.000  C
  H299     1.0000 0.68304  0.95579  0.02140  Biso   1.000  H
  H300     1.0000 0.69547  0.84420  0.13828  Biso   1.000  H
  H301     1.0000 0.72962  0.90749  0.11963  Biso   1.000  H
  H302     1.0000 0.69552  0.84420  0.13828  Biso   1.000  H
  C246     1.0000 0.24499  0.97721  0.85353  Biso   1.000  C
  H303     1.0000 0.40130  0.97867  0.93392  Biso   1.000  H
  H304     1.0000 0.43192  0.91970  0.90141  Biso   1.000  H
  C247     1.0000 0.43015  0.91291  0.99630  Biso   1.000  C
  H305     1.0000 0.45730  0.82860  0.96721  Biso   1.000  H
  H306     1.0000 0.44399  0.83261  0.03969  Biso   1.000  H
  H307     1.0000 0.44405  0.83261  0.03969  Biso   1.000  H
  C248     1.0000 0.74181  0.95443  0.75791  Biso   1.000  C
  C249     1.0000 0.82850  0.03319  0.72842  Biso   1.000  C
  H308     1.0000 0.83439  0.02358  0.59361  Biso   1.000  H
  H309     1.0000 0.74929  0.01869  0.56260  Biso   1.000  H
  H310     1.0000 0.76343  0.06369  0.61789  Biso   1.000  H
  H311     1.0000 0.81001  0.04319  0.59461  Biso   1.000  H
  H312     1.0000 0.86502  0.98660  0.60399  Biso   1.000  H
  H313     1.0000 0.79411  0.98457  0.55579  Biso   1.000  H
  C250     1.0000 0.25824  0.95443  0.74209  Biso   1.000  C
  C251     1.0000 0.17962  0.00357  0.66609  Biso   1.000  C
  H314     1.0000 0.30442  0.84600  0.67821  Biso   1.000  H
  H315     1.0000 0.37044  0.89629  0.67711  Biso   1.000  H
  H316     1.0000 0.35365  0.85799  0.61702  Biso   1.000  H
  C252     1.0000 0.76419  0.96091  0.81864  Biso   1.000  C
  C253     1.0000 0.67038  0.87637  0.84690  Biso   1.000  C
  C254     1.0000 0.67044  0.87637  0.84690  Biso   1.000  C
  H317     1.0000 0.59918  0.89898  0.08492  Biso   1.000  H
  H318     1.0000 0.62132  0.84050  0.04760  Biso   1.000  H
  H319     1.0000 0.59923  0.89898  0.08492  Biso   1.000  H
  C255     1.0000 0.22521  0.98986  0.78828  Biso   1.000  C
  C256     1.0000 0.22250  0.02499  0.89880  Biso   1.000  C
  C257     1.0000 0.18899  0.00000  0.90452  Biso   1.000  C
  H320     1.0000 0.48581  0.92499  0.00101  Biso   1.000  H
  H321     1.0000 0.39941  0.93067  0.03000  Biso   1.000  H
  H322     1.0000 0.70353  0.92560  0.74739  Biso   1.000  H
  H323     1.0000 0.84947  0.05849  0.69791  Biso   1.000  H
  C258     1.0000 0.85230  0.04042  0.78956  Biso   1.000  C
  H324     1.0000 0.84953  0.05849  0.69791  Biso   1.000  H
  H325     1.0000 0.29653  0.92560  0.75261  Biso   1.000  H
  C259     1.0000 0.14770  0.04042  0.71044  Biso   1.000  C
  H326     1.0000 0.16290  0.00740  0.62479  Biso   1.000  H
  C260     1.0000 0.82044  0.00357  0.83391  Biso   1.000  C
  H327     1.0000 0.69558  0.84600  0.82179  Biso   1.000  H
  H328     1.0000 0.64641  0.85799  0.88303  Biso   1.000  H
  H329     1.0000 0.62956  0.89629  0.82289  Biso   1.000  H
  H330     1.0000 0.62962  0.89629  0.82289  Biso   1.000  H
  C261     1.0000 0.17150  0.03319  0.77158  Biso   1.000  C
  H331     1.0000 0.16561  0.02358  0.90639  Biso   1.000  H
  H332     1.0000 0.23663  0.06369  0.88211  Biso   1.000  H
  H333     1.0000 0.25071  0.01869  0.93740  Biso   1.000  H
  H334     1.0000 0.18999  0.04319  0.90539  Biso   1.000  H
  H335     1.0000 0.13498  0.98660  0.89601  Biso   1.000  H
  H336     1.0000 0.20589  0.98457  0.94421  Biso   1.000  H
  C262     1.0000 0.91213  0.08669  0.80465  Biso   1.000  C
  C263     1.0000 0.08793  0.08669  0.69535  Biso   1.000  C
  H337     1.0000 0.83710  0.00740  0.87521  Biso   1.000  H
  H338     1.0000 0.15053  0.05849  0.80209  Biso   1.000  H
  N38      1.0000 0.91590  0.13068  0.76825  Biso   1.000  N
  C264     1.0000 0.96319  0.07625  0.86002  Biso   1.000  C
  N39      1.0000 0.08410  0.13068  0.73175  Biso   1.000  N
  C265     1.0000 0.03681  0.07625  0.63998  Biso   1.000  C
  C266     1.0000 0.97102  0.17969  0.77716  Biso   1.000  C
  H339     1.0000 0.97880  0.03469  0.86149  Biso   1.000  H
  H340     1.0000 0.93363  0.08617  0.89711  Biso   1.000  H
  H341     1.0000 0.01031  0.10111  0.85751  Biso   1.000  H
  C267     1.0000 0.02903  0.17969  0.72284  Biso   1.000  C
  H342     1.0000 0.98969  0.10111  0.64249  Biso   1.000  H
  H343     1.0000 0.02120  0.03469  0.63851  Biso   1.000  H
  H344     1.0000 0.06637  0.08617  0.60289  Biso   1.000  H
  H345     1.0000 0.06643  0.08617  0.60289  Biso   1.000  H
  C268     1.0000 0.92350  0.23641  0.78014  Biso   1.000  C
  H346     1.0000 0.00059  0.17409  0.81631  Biso   1.000  H
  H347     1.0000 0.99941  0.17409  0.68369  Biso   1.000  H
  C269     1.0000 0.07650  0.23641  0.71986  Biso   1.000  C
  H348     1.0000 0.89181  0.23637  0.81809  Biso   1.000  H
  H349     1.0000 0.88651  0.23747  0.74511  Biso   1.000  H
  C270     1.0000 0.97409  0.29182  0.77881  Biso   1.000  C
  C271     1.0000 0.97415  0.29182  0.77881  Biso   1.000  C
  C272     1.0000 0.02591  0.29182  0.72119  Biso   1.000  C
  H350     1.0000 0.10819  0.23637  0.68191  Biso   1.000  H
  H351     1.0000 0.11349  0.23747  0.75489  Biso   1.000  H
  H352     1.0000 0.10824  0.23637  0.68191  Biso   1.000  H
  H353     1.0000 0.11355  0.23747  0.75489  Biso   1.000  H
  H354     1.0000 0.93981  0.32716  0.77890  Biso   1.000  H
  H355     1.0000 0.00777  0.29318  0.81571  Biso   1.000  H
  H356     1.0000 0.00783  0.29318  0.81571  Biso   1.000  H
  H357     1.0000 0.99223  0.29318  0.68429  Biso   1.000  H
  H358     1.0000 0.06019  0.32716  0.72110  Biso   1.000  H
  H359     1.0000 0.06025  0.32716  0.72110  Biso   1.000  H
  C273     1.0000 0.99052  0.46670  0.31663  Biso   1.000  C
  C274     1.0000 0.01832  0.41174  0.28242  Biso   1.000  C
  H360     1.0000 0.93239  0.46578  0.32042  Biso   1.000  H
  C275     1.0000 0.01531  0.52272  0.28311  Biso   1.000  C
  H361     1.0000 0.01313  0.46679  0.35842  Biso   1.000  H
  N40      1.0000 0.99252  0.35872  0.31439  Biso   1.000  N
  C276     1.0000 0.98168  0.41174  0.21758  Biso   1.000  C
  C277     1.0000 0.98174  0.41174  0.21758  Biso   1.000  C
  H362     1.0000 0.07709  0.41201  0.27922  Biso   1.000  H
  H363     1.0000 0.99441  0.55758  0.30501  Biso   1.000  H
  C278     1.0000 0.98469  0.52272  0.21689  Biso   1.000  C
  C279     1.0000 0.98475  0.52272  0.21689  Biso   1.000  C
  H364     1.0000 0.07350  0.52559  0.28288  Biso   1.000  H
  C280     1.0000 0.04081  0.31733  0.32646  Biso   1.000  C
  H365     1.0000 0.92291  0.41201  0.22078  Biso   1.000  H
  N41      1.0000 0.00748  0.35872  0.18561  Biso   1.000  N
  C281     1.0000 0.00948  0.46670  0.18337  Biso   1.000  C
  C282     1.0000 0.00954  0.46670  0.18337  Biso   1.000  C
  H366     1.0000 0.92650  0.52559  0.21712  Biso   1.000  H
  H367     1.0000 0.00559  0.55758  0.19499  Biso   1.000  H
  C283     1.0000 0.00789  0.26378  0.35801  Biso   1.000  C
  C284     1.0000 0.12839  0.31601  0.31196  Biso   1.000  C
  C285     1.0000 0.12845  0.31601  0.31196  Biso   1.000  C
  C286     1.0000 0.95919  0.31733  0.17354  Biso   1.000  C
  C287     1.0000 0.95925  0.31733  0.17354  Biso   1.000  C
  H368     1.0000 0.98693  0.46679  0.14162  Biso   1.000  H
  H369     1.0000 0.06761  0.46578  0.17962  Biso   1.000  H
  C288     1.0000 0.92744  0.25162  0.35344  Biso   1.000  C
  C289     1.0000 0.05524  0.22570  0.39158  Biso   1.000  C
  H370     1.0000 0.13881  0.33999  0.27561  Biso   1.000  H
  H371     1.0000 0.14482  0.27520  0.30419  Biso   1.000  H
  H372     1.0000 0.15813  0.33179  0.34672  Biso   1.000  H
  C290     1.0000 0.99211  0.26378  0.14199  Biso   1.000  C
  C291     1.0000 0.87161  0.31601  0.18808  Biso   1.000  C
  C292     1.0000 0.89452  0.20292  0.38266  Biso   1.000  C
  H373     1.0000 0.89458  0.27701  0.33012  Biso   1.000  H
  H374     1.0000 0.89464  0.27701  0.33012  Biso   1.000  H
  C293     1.0000 0.02403  0.17603  0.42061  Biso   1.000  C
  H375     1.0000 0.11001  0.23359  0.39491  Biso   1.000  H
  C294     1.0000 0.94482  0.22570  0.10842  Biso   1.000  C
  C295     1.0000 0.07261  0.25162  0.14656  Biso   1.000  C
  H376     1.0000 0.86119  0.33999  0.22439  Biso   1.000  H
  H377     1.0000 0.85524  0.27520  0.19581  Biso   1.000  H
  H378     1.0000 0.84193  0.33179  0.15328  Biso   1.000  H
  C296     1.0000 0.80819  0.18992  0.37914  Biso   1.000  C
  C297     1.0000 0.94358  0.16497  0.41540  Biso   1.000  C
  C298     1.0000 0.94364  0.16497  0.41540  Biso   1.000  C
  C299     1.0000 0.07668  0.13601  0.45610  Biso   1.000  C
  C300     1.0000 0.07674  0.13601  0.45610  Biso   1.000  C
  C301     1.0000 0.97597  0.17603  0.07943  Biso   1.000  C
  C302     1.0000 0.97603  0.17603  0.07943  Biso   1.000  C
  H379     1.0000 0.88999  0.23359  0.10509  Biso   1.000  H
  H380     1.0000 0.10542  0.27701  0.16988  Biso   1.000  H
  C303     1.0000 0.10554  0.20292  0.11734  Biso   1.000  C
  N42      1.0000 0.77768  0.16656  0.42651  Biso   1.000  N
  C304     1.0000 0.76737  0.20547  0.32074  Biso   1.000  C
  C305     1.0000 0.76743  0.20547  0.32074  Biso   1.000  C
  H381     1.0000 0.92179  0.13099  0.43442  Biso   1.000  H
  N43      1.0000 0.14005  0.15884  0.47736  Biso   1.000  N
  N44      1.0000 0.14011  0.15884  0.47736  Biso   1.000  N
  C306     1.0000 0.04994  0.07290  0.46291  Biso   1.000  C
  C307     1.0000 0.92332  0.13601  0.04390  Biso   1.000  C
  C308     1.0000 0.05642  0.16497  0.08460  Biso   1.000  C
  C309     1.0000 0.19181  0.18992  0.12086  Biso   1.000  C
  C310     1.0000 0.69393  0.15153  0.42976  Biso   1.000  C
  H382     1.0000 0.72091  0.18040  0.31571  Biso   1.000  H
  H383     1.0000 0.80353  0.19930  0.28631  Biso   1.000  H
  H384     1.0000 0.75124  0.24690  0.32202  Biso   1.000  H
  C311     1.0000 0.19682  0.12482  0.51212  Biso   1.000  C
  H385     1.0000 0.09552  0.04782  0.47160  Biso   1.000  H
  H386     1.0000 0.01207  0.07008  0.49671  Biso   1.000  H
  H387     1.0000 0.02473  0.05990  0.42491  Biso   1.000  H
  H388     1.0000 0.01213  0.07008  0.49671  Biso   1.000  H
  N45      1.0000 0.85995  0.15884  0.02264  Biso   1.000  N
  C312     1.0000 0.95012  0.07290  0.03709  Biso   1.000  C
  H389     1.0000 0.07821  0.13099  0.06562  Biso   1.000  H
  N46      1.0000 0.22232  0.16656  0.07353  Biso   1.000  N
  C313     1.0000 0.23263  0.20547  0.17926  Biso   1.000  C
  N47      1.0000 0.22238  0.16656  0.07353  Biso   1.000  N
  C314     1.0000 0.66107  0.17304  0.49136  Biso   1.000  C
  C315     1.0000 0.66113  0.17304  0.49136  Biso   1.000  C
  C316     1.0000 0.68640  0.08440  0.42478  Biso   1.000  C
  H390     1.0000 0.66490  0.17088  0.39542  Biso   1.000  H
  C317     1.0000 0.26802  0.11235  0.47096  Biso   1.000  C
  C318     1.0000 0.22179  0.16047  0.56850  Biso   1.000  C
  H391     1.0000 0.17250  0.08678  0.52538  Biso   1.000  H
  C319     1.0000 0.22185  0.16047  0.56850  Biso   1.000  C
  C320     1.0000 0.80324  0.12482  0.98788  Biso   1.000  C
  H392     1.0000 0.97532  0.05990  0.07509  Biso   1.000  H
  H393     1.0000 0.98793  0.07008  0.00329  Biso   1.000  H
  H394     1.0000 0.90453  0.04782  0.02840  Biso   1.000  H
  C321     1.0000 0.30612  0.15153  0.07024  Biso   1.000  C
  H395     1.0000 0.19653  0.19930  0.21369  Biso   1.000  H
  H396     1.0000 0.24882  0.24690  0.17802  Biso   1.000  H
  H397     1.0000 0.27915  0.18040  0.18429  Biso   1.000  H
  C322     1.0000 0.57580  0.15360  0.49959  Biso   1.000  C
  H398     1.0000 0.69352  0.15690  0.52511  Biso   1.000  H
  H399     1.0000 0.66413  0.21658  0.49319  Biso   1.000  H
  C323     1.0000 0.60147  0.06488  0.43488  Biso   1.000  C
  C324     1.0000 0.60153  0.06488  0.43488  Biso   1.000  C
  H400     1.0000 0.72132  0.06519  0.45569  Biso   1.000  H
  N48      1.0000 0.71019  0.06642  0.36336  Biso   1.000  N
  N49      1.0000 0.71025  0.06642  0.36336  Biso   1.000  N
  N50      1.0000 0.24258  0.07325  0.42135  Biso   1.000  N
  H401     1.0000 0.28728  0.15029  0.45322  Biso   1.000  H
  C325     1.0000 0.33433  0.08352  0.50700  Biso   1.000  C
  H402     1.0000 0.28734  0.15029  0.45322  Biso   1.000  H
  H403     1.0000 0.23893  0.20019  0.55542  Biso   1.000  H
  H404     1.0000 0.17603  0.16519  0.59612  Biso   1.000  H
  C326     1.0000 0.28875  0.13077  0.60330  Biso   1.000  C
  C327     1.0000 0.73204  0.11235  0.02904  Biso   1.000  C
  C328     1.0000 0.77821  0.16047  0.93150  Biso   1.000  C
  H405     1.0000 0.82750  0.08678  0.97462  Biso   1.000  H
  C329     1.0000 0.31360  0.08440  0.07522  Biso   1.000  C
  H406     1.0000 0.33510  0.17088  0.10458  Biso   1.000  H
  C330     1.0000 0.33893  0.17304  0.00864  Biso   1.000  C
  C331     1.0000 0.56991  0.08709  0.49630  Biso   1.000  C
  H407     1.0000 0.55601  0.16739  0.53969  Biso   1.000  H
  H408     1.0000 0.54270  0.17140  0.46721  Biso   1.000  H
  H409     1.0000 0.59870  0.02129  0.43392  Biso   1.000  H
  H410     1.0000 0.56814  0.08030  0.40141  Biso   1.000  H
  C332     1.0000 0.75501  0.02279  0.35353  Biso   1.000  C
  C333     1.0000 0.26890  0.07929  0.36707  Biso   1.000  C
  H411     1.0000 0.38051  0.07779  0.47993  Biso   1.000  H
  H412     1.0000 0.31702  0.04421  0.52140  Biso   1.000  H
  C334     1.0000 0.35830  0.12107  0.56196  Biso   1.000  C
  H413     1.0000 0.30453  0.15580  0.63828  Biso   1.000  H
  H414     1.0000 0.27044  0.09251  0.61958  Biso   1.000  H
  N51      1.0000 0.75748  0.07325  0.07865  Biso   1.000  N
  H415     1.0000 0.71272  0.15029  0.04678  Biso   1.000  H
  C335     1.0000 0.66572  0.08352  0.99300  Biso   1.000  C
  C336     1.0000 0.71131  0.13077  0.89670  Biso   1.000  C
  H416     1.0000 0.82397  0.16519  0.90388  Biso   1.000  H
  H417     1.0000 0.76113  0.20019  0.94462  Biso   1.000  H
  H418     1.0000 0.82403  0.16519  0.90388  Biso   1.000  H
  N52      1.0000 0.28981  0.06642  0.13664  Biso   1.000  N
  H419     1.0000 0.27868  0.06519  0.04431  Biso   1.000  H
  C337     1.0000 0.39853  0.06488  0.06512  Biso   1.000  C
  H420     1.0000 0.27874  0.06519  0.04431  Biso   1.000  H
  H421     1.0000 0.30654  0.15690  0.97489  Biso   1.000  H
  H422     1.0000 0.33592  0.21658  0.00681  Biso   1.000  H
  C338     1.0000 0.42420  0.15360  0.00041  Biso   1.000  C
  H423     1.0000 0.51419  0.07501  0.50101  Biso   1.000  H
  H424     1.0000 0.60059  0.06928  0.53000  Biso   1.000  H
  C339     1.0000 0.77479  0.01014  0.28823  Biso   1.000  C
  C340     1.0000 0.77750  0.97501  0.39880  Biso   1.000  C
  C341     1.0000 0.81101  0.00000  0.40452  Biso   1.000  C
  C342     1.0000 0.23581  0.03909  0.31864  Biso   1.000  C
  C343     1.0000 0.32962  0.12358  0.34690  Biso   1.000  C
  H425     1.0000 0.40082  0.10102  0.58492  Biso   1.000  H
  H426     1.0000 0.37868  0.15950  0.54760  Biso   1.000  H
  H427     1.0000 0.37874  0.15950  0.54760  Biso   1.000  H
  C344     1.0000 0.73110  0.07929  0.13293  Biso   1.000  C
  H428     1.0000 0.61949  0.07779  0.02012  Biso   1.000  H
  H429     1.0000 0.68298  0.04421  0.97860  Biso   1.000  H
  C345     1.0000 0.64170  0.12107  0.93804  Biso   1.000  C
  H430     1.0000 0.68304  0.04421  0.97860  Biso   1.000  H
  H431     1.0000 0.69547  0.15580  0.86172  Biso   1.000  H
  H432     1.0000 0.72962  0.09251  0.88042  Biso   1.000  H
  H433     1.0000 0.69552  0.15580  0.86172  Biso   1.000  H
  C346     1.0000 0.24499  0.02279  0.14647  Biso   1.000  C
  H434     1.0000 0.40130  0.02129  0.06608  Biso   1.000  H
  H435     1.0000 0.43192  0.08030  0.09859  Biso   1.000  H
  C347     1.0000 0.43015  0.08709  0.00370  Biso   1.000  C
  H436     1.0000 0.44399  0.16739  0.96031  Biso   1.000  H
  H437     1.0000 0.44405  0.16739  0.96031  Biso   1.000  H
  H438     1.0000 0.45730  0.17140  0.03279  Biso   1.000  H
  C348     1.0000 0.74181  0.04553  0.24209  Biso   1.000  C
  C349     1.0000 0.82850  0.96681  0.27158  Biso   1.000  C
  H439     1.0000 0.83439  0.97642  0.40639  Biso   1.000  H
  H440     1.0000 0.74929  0.98131  0.43740  Biso   1.000  H
  H441     1.0000 0.76343  0.93631  0.38211  Biso   1.000  H
  H442     1.0000 0.81001  0.95681  0.40539  Biso   1.000  H
  H443     1.0000 0.86502  0.01340  0.39601  Biso   1.000  H
  H444     1.0000 0.79411  0.01538  0.44421  Biso   1.000  H
  C350     1.0000 0.17962  0.99643  0.33391  Biso   1.000  C
  C351     1.0000 0.25824  0.04553  0.25791  Biso   1.000  C
  H445     1.0000 0.30442  0.15400  0.32179  Biso   1.000  H
  H446     1.0000 0.37044  0.10371  0.32289  Biso   1.000  H
  H447     1.0000 0.35365  0.14201  0.38298  Biso   1.000  H
  C352     1.0000 0.76419  0.03909  0.18136  Biso   1.000  C
  C353     1.0000 0.67038  0.12358  0.15310  Biso   1.000  C
  C354     1.0000 0.67044  0.12358  0.15310  Biso   1.000  C
  H448     1.0000 0.59918  0.10102  0.91508  Biso   1.000  H
  H449     1.0000 0.62132  0.15950  0.95240  Biso   1.000  H
  H450     1.0000 0.59923  0.10102  0.91508  Biso   1.000  H
  C355     1.0000 0.22521  0.01014  0.21177  Biso   1.000  C
  C356     1.0000 0.22250  0.97501  0.10120  Biso   1.000  C
  C357     1.0000 0.18899  0.00000  0.09548  Biso   1.000  C
  H451     1.0000 0.48581  0.07501  0.99899  Biso   1.000  H
  H452     1.0000 0.39941  0.06928  0.97000  Biso   1.000  H
  H453     1.0000 0.70353  0.07440  0.25261  Biso   1.000  H
  H454     1.0000 0.84947  0.94151  0.30209  Biso   1.000  H
  C358     1.0000 0.85230  0.95958  0.21044  Biso   1.000  C
  H455     1.0000 0.84953  0.94151  0.30209  Biso   1.000  H
  C359     1.0000 0.14770  0.95958  0.28956  Biso   1.000  C
  H456     1.0000 0.16290  0.99260  0.37521  Biso   1.000  H
  H457     1.0000 0.29653  0.07440  0.24739  Biso   1.000  H
  C360     1.0000 0.82044  0.99643  0.16609  Biso   1.000  C
  H458     1.0000 0.69558  0.15400  0.17821  Biso   1.000  H
  H459     1.0000 0.64641  0.14201  0.11702  Biso   1.000  H
  H460     1.0000 0.62956  0.10371  0.17711  Biso   1.000  H
  H461     1.0000 0.62962  0.10371  0.17711  Biso   1.000  H
  C361     1.0000 0.17150  0.96681  0.22842  Biso   1.000  C
  H462     1.0000 0.16561  0.97642  0.09361  Biso   1.000  H
  H463     1.0000 0.23663  0.93631  0.11789  Biso   1.000  H
  H464     1.0000 0.25071  0.98131  0.06260  Biso   1.000  H
  H465     1.0000 0.18999  0.95681  0.09461  Biso   1.000  H
  H466     1.0000 0.13498  0.01340  0.10399  Biso   1.000  H
  H467     1.0000 0.20589  0.01538  0.05579  Biso   1.000  H
  C362     1.0000 0.91213  0.91331  0.19535  Biso   1.000  C
  C363     1.0000 0.08793  0.91331  0.30465  Biso   1.000  C
  H468     1.0000 0.83710  0.99260  0.12479  Biso   1.000  H
  H469     1.0000 0.15053  0.94151  0.19791  Biso   1.000  H
  N53      1.0000 0.91590  0.86928  0.23175  Biso   1.000  N
  C364     1.0000 0.96319  0.92375  0.13998  Biso   1.000  C
  N54      1.0000 0.08410  0.86928  0.26825  Biso   1.000  N
  C365     1.0000 0.03681  0.92375  0.36002  Biso   1.000  C
  C366     1.0000 0.97102  0.82031  0.22284  Biso   1.000  C
  H470     1.0000 0.97880  0.96531  0.13851  Biso   1.000  H
  H471     1.0000 0.93363  0.91379  0.10289  Biso   1.000  H
  H472     1.0000 0.01031  0.89889  0.14249  Biso   1.000  H
  C367     1.0000 0.02903  0.82031  0.27716  Biso   1.000  C
  H473     1.0000 0.98969  0.89889  0.35751  Biso   1.000  H
  H474     1.0000 0.02120  0.96531  0.36149  Biso   1.000  H
  H475     1.0000 0.06637  0.91379  0.39711  Biso   1.000  H
  H476     1.0000 0.06643  0.91379  0.39711  Biso   1.000  H
  C368     1.0000 0.92350  0.76354  0.21986  Biso   1.000  C
  H477     1.0000 0.00059  0.82591  0.18369  Biso   1.000  H
  H478     1.0000 0.99941  0.82591  0.31631  Biso   1.000  H
  C369     1.0000 0.07650  0.76354  0.28014  Biso   1.000  C
  H479     1.0000 0.89181  0.76359  0.18191  Biso   1.000  H
  H480     1.0000 0.88651  0.76248  0.25489  Biso   1.000  H
  C370     1.0000 0.97409  0.70814  0.22119  Biso   1.000  C
  C371     1.0000 0.97415  0.70814  0.22119  Biso   1.000  C
  C372     1.0000 0.02591  0.70814  0.27881  Biso   1.000  C
  H481     1.0000 0.10819  0.76359  0.31809  Biso   1.000  H
  H482     1.0000 0.11349  0.76248  0.24511  Biso   1.000  H
  H483     1.0000 0.10824  0.76359  0.31809  Biso   1.000  H
  H484     1.0000 0.11355  0.76248  0.24511  Biso   1.000  H
  H485     1.0000 0.93981  0.67279  0.22110  Biso   1.000  H
  H486     1.0000 0.00777  0.70682  0.18429  Biso   1.000  H
  H487     1.0000 0.00783  0.70682  0.18429  Biso   1.000  H
  H488     1.0000 0.99223  0.70682  0.31571  Biso   1.000  H
  H489     1.0000 0.06019  0.67279  0.27890  Biso   1.000  H
  H490     1.0000 0.06025  0.67279  0.27890  Biso   1.000  H
