data_image0
_cell_length_a       13.701
_cell_length_b       13.701
_cell_length_c       84.866
_cell_angle_alpha    90
_cell_angle_beta     90
_cell_angle_gamma    120

_symmetry_space_group_name_H-M    "P 1"
_symmetry_int_tables_number       1

loop_
  _symmetry_equiv_pos_as_xyz
  'x, y, z'

loop_
  _atom_site_label
  _atom_site_occupancy
  _atom_site_fract_x
  _atom_site_fract_y
  _atom_site_fract_z
  _atom_site_thermal_displace_type
  _atom_site_B_iso_or_equiv
  _atom_site_type_symbol
  C1       1.0000 0.52141  0.48578  0.46432  Biso   1.000  C
  C2       1.0000 0.45208  0.39982  0.45220  Biso   1.000  C
  N1       1.0000 0.53095  0.58135  0.46334  Biso   1.000  N
  C3       1.0000 0.57672  0.45072  0.47701  Biso   1.000  C
  C4       1.0000 0.44200  0.43833  0.43690  Biso   1.000  C
  C5       1.0000 0.40140  0.28503  0.45407  Biso   1.000  C
  C6       1.0000 0.60207  0.67339  0.47381  Biso   1.000  C
  H1       1.0000 0.59938  0.50348  0.48590  Biso   1.000  H
  H2       1.0000 0.64314  0.45131  0.47260  Biso   1.000  H
  H3       1.0000 0.52283  0.37462  0.48070  Biso   1.000  H
  C7       1.0000 0.37888  0.36450  0.42554  Biso   1.000  C
  H4       1.0000 0.48018  0.51688  0.43470  Biso   1.000  H
  C8       1.0000 0.33450  0.20859  0.44286  Biso   1.000  C
  H5       1.0000 0.41350  0.25697  0.46370  Biso   1.000  H
  H6       1.0000 0.62972  0.64431  0.48250  Biso   1.000  H
  C9       1.0000 0.53731  0.72589  0.48076  Biso   1.000  C
  C10      1.0000 0.70126  0.75994  0.46456  Biso   1.000  C
  C11      1.0000 0.38211  0.40993  0.40897  Biso   1.000  C
  C12      1.0000 0.32802  0.25300  0.42811  Biso   1.000  C
  C13      1.0000 0.28427  0.08639  0.44570  Biso   1.000  C
  H7       1.0000 0.50156  0.74519  0.47210  Biso   1.000  H
  H8       1.0000 0.47620  0.66951  0.48750  Biso   1.000  H
  C14      1.0000 0.60791  0.82913  0.49024  Biso   1.000  C
  N2       1.0000 0.76944  0.71165  0.45972  Biso   1.000  N
  C15      1.0000 0.77888  0.86512  0.47505  Biso   1.000  C
  H9       1.0000 0.67461  0.78371  0.45511  Biso   1.000  H
  N3       1.0000 0.29609  0.35439  0.40067  Biso   1.000  N
  C16      1.0000 0.48579  0.51511  0.40474  Biso   1.000  C
  H10      1.0000 0.28659  0.20269  0.41980  Biso   1.000  H
  N4       1.0000 0.28838  0.05782  0.45972  Biso   1.000  N
  C17      1.0000 0.25698  0.01298  0.43110  Biso   1.000  C
  C18      1.0000 0.19398  0.99806  0.43350  Biso   1.000  C
  H11      1.0000 0.63745  0.80924  0.49960  Biso   1.000  H
  H12      1.0000 0.56110  0.86091  0.49390  Biso   1.000  H
  C19      1.0000 0.70428  0.91560  0.48073  Biso   1.000  C
  C20      1.0000 0.80212  0.71569  0.44570  Biso   1.000  C
  H13      1.0000 0.80764  0.84220  0.48420  Biso   1.000  H
  H14      1.0000 0.84398  0.92159  0.46890  Biso   1.000  H
  C21      1.0000 0.28448  0.39889  0.38553  Biso   1.000  C
  H15      1.0000 0.54800  0.52421  0.41150  Biso   1.000  H
  H16      1.0000 0.47389  0.57933  0.40630  Biso   1.000  H
  H17      1.0000 0.50443  0.51182  0.39370  Biso   1.000  H
  C22      1.0000 0.24014  0.94134  0.46456  Biso   1.000  C
  H18      1.0000 0.21811  0.02486  0.42270  Biso   1.000  H
  H19      1.0000 0.30714  0.05680  0.42250  Biso   1.000  H
  H20      1.0000 0.18932  0.92465  0.43490  Biso   1.000  H
  H21      1.0000 0.17828  0.98593  0.42800  Biso   1.000  H
  H22      1.0000 0.26640  0.94817  0.43340  Biso   1.000  H
  H23      1.0000 0.12034  0.99048  0.43550  Biso   1.000  H
  H24      1.0000 0.75022  0.98370  0.48720  Biso   1.000  H
  H25      1.0000 0.67543  0.93760  0.47150  Biso   1.000  H
  C23      1.0000 0.87412  0.66555  0.44286  Biso   1.000  C
  C24      1.0000 0.80401  0.80604  0.43350  Biso   1.000  C
  C25      1.0000 0.75600  0.74300  0.43110  Biso   1.000  C
  C26      1.0000 0.29619  0.33357  0.37213  Biso   1.000  C
  C27      1.0000 0.16754  0.38954  0.38482  Biso   1.000  C
  H26      1.0000 0.34431  0.47988  0.38459  Biso   1.000  H
  C28      1.0000 0.32663  0.92878  0.47381  Biso   1.000  C
  C29      1.0000 0.13488  0.91387  0.47505  Biso   1.000  C
  H27      1.0000 0.21633  0.89094  0.45511  Biso   1.000  H
  C30      1.0000 0.92503  0.67204  0.42811  Biso   1.000  C
  C31      1.0000 0.88365  0.59863  0.45407  Biso   1.000  C
  H28      1.0000 0.73536  0.81076  0.43490  Biso   1.000  H
  H29      1.0000 0.80685  0.78194  0.42270  Biso   1.000  H
  H30      1.0000 0.87011  0.87970  0.43550  Biso   1.000  H
  H31      1.0000 0.80747  0.82172  0.42800  Biso   1.000  H
  H32      1.0000 0.68169  0.73364  0.43340  Biso   1.000  H
  H33      1.0000 0.74972  0.69294  0.42250  Biso   1.000  H
  C32      1.0000 0.27982  0.37732  0.35591  Biso   1.000  C
  N5       1.0000 0.41180  0.35153  0.37246  Biso   1.000  N
  H34      1.0000 0.24016  0.25157  0.37329  Biso   1.000  H
  C33      1.0000 0.15262  0.43530  0.36924  Biso   1.000  C
  H35      1.0000 0.10803  0.30964  0.38600  Biso   1.000  H
  H36      1.0000 0.15988  0.43260  0.39360  Biso   1.000  H
  N6       1.0000 0.41875  0.94969  0.46334  Biso   1.000  N
  H37      1.0000 0.35572  0.98550  0.48250  Biso   1.000  H
  C34      1.0000 0.27417  0.81147  0.48076  Biso   1.000  C
  C35      1.0000 0.08439  0.78880  0.48073  Biso   1.000  C
  H38      1.0000 0.15775  0.96545  0.48420  Biso   1.000  H
  H39      1.0000 0.07838  0.92246  0.46890  Biso   1.000  H
  C36      1.0000 0.98563  0.62113  0.42554  Biso   1.000  C
  H40      1.0000 0.91616  0.71342  0.41980  Biso   1.000  H
  C37      1.0000 0.94769  0.54789  0.45220  Biso   1.000  C
  H41      1.0000 0.84350  0.58649  0.46370  Biso   1.000  H
  C38      1.0000 0.16509  0.36872  0.35521  Biso   1.000  C
  H42      1.0000 0.33948  0.45679  0.35441  Biso   1.000  H
  H43      1.0000 0.28621  0.33214  0.34730  Biso   1.000  H
  C39      1.0000 0.43227  0.27348  0.37596  Biso   1.000  C
  H44      1.0000 0.21004  0.51612  0.36830  Biso   1.000  H
  H45      1.0000 0.07720  0.42839  0.36890  Biso   1.000  H
  C40      1.0000 0.51417  0.03557  0.46432  Biso   1.000  C
  H46      1.0000 0.25487  0.75652  0.47210  Biso   1.000  H
  H47      1.0000 0.33057  0.80675  0.48750  Biso   1.000  H
  C41      1.0000 0.17094  0.77885  0.49024  Biso   1.000  C
  H48      1.0000 0.01633  0.76655  0.48720  Biso   1.000  H
  H49      1.0000 0.06244  0.73789  0.47150  Biso   1.000  H
  C42      1.0000 0.02782  0.61793  0.40897  Biso   1.000  C
  C43      1.0000 0.99632  0.55801  0.43690  Biso   1.000  C
  C44      1.0000 0.96444  0.47862  0.46432  Biso   1.000  C
  H50      1.0000 0.10509  0.28857  0.35580  Biso   1.000  H
  H51      1.0000 0.15690  0.40007  0.34510  Biso   1.000  H
  C45      1.0000 0.55462  0.30332  0.37576  Biso   1.000  C
  C46      1.0000 0.34492  0.15339  0.38104  Biso   1.000  C
  C47      1.0000 0.60021  0.05234  0.45220  Biso   1.000  C
  C48      1.0000 0.54931  0.12600  0.47701  Biso   1.000  C
  H52      1.0000 0.19082  0.82824  0.49960  Biso   1.000  H
  H53      1.0000 0.13911  0.70031  0.49390  Biso   1.000  H
  N7       1.0000 0.05832  0.70389  0.40067  Biso   1.000  N
  C49      1.0000 0.02930  0.51418  0.40474  Biso   1.000  C
  H54      1.0000 0.03672  0.51983  0.43470  Biso   1.000  H
  C50      1.0000 0.87403  0.42333  0.47701  Biso   1.000  C
  N8       1.0000 0.05040  0.46909  0.46334  Biso   1.000  N
  C51      1.0000 0.63743  0.41608  0.37572  Biso   1.000  C
  C52      1.0000 0.58391  0.22132  0.37572  Biso   1.000  C
  H55      1.0000 0.28513  0.15541  0.38710  Biso   1.000  H
  H56      1.0000 0.38151  0.12204  0.38760  Biso   1.000  H
  H57      1.0000 0.31242  0.10619  0.37170  Biso   1.000  H
  C53      1.0000 0.56174  0.00371  0.43690  Biso   1.000  C
  C54      1.0000 0.71501  0.11639  0.45407  Biso   1.000  C
  H58      1.0000 0.49653  0.09591  0.48590  Biso   1.000  H
  H59      1.0000 0.54872  0.19182  0.47260  Biso   1.000  H
  H60      1.0000 0.62543  0.14816  0.48070  Biso   1.000  H
  C55      1.0000 0.11442  0.71552  0.38553  Biso   1.000  C
  H61      1.0000 0.97623  0.45199  0.41150  Biso   1.000  H
  H62      1.0000 0.10542  0.52615  0.40630  Biso   1.000  H
  H63      1.0000 0.00747  0.49564  0.39370  Biso   1.000  H
  H64      1.0000 0.90411  0.40058  0.48590  Biso   1.000  H
  H65      1.0000 0.80819  0.35692  0.47260  Biso   1.000  H
  H66      1.0000 0.85183  0.47719  0.48070  Biso   1.000  H
  C56      1.0000 0.07128  0.39788  0.47381  Biso   1.000  C
  H67      1.0000 0.61693  0.47289  0.37570  Biso   1.000  H
  C57      1.0000 0.74873  0.44541  0.37576  Biso   1.000  C
  C58      1.0000 0.69671  0.25132  0.37576  Biso   1.000  C
  H68      1.0000 0.52709  0.14403  0.37570  Biso   1.000  H
  C59      1.0000 0.63555  0.01441  0.42554  Biso   1.000  C
  H69      1.0000 0.48313  0.96342  0.43470  Biso   1.000  H
  C60      1.0000 0.79144  0.12591  0.44286  Biso   1.000  C
  H70      1.0000 0.74302  0.15651  0.46370  Biso   1.000  H
  C61      1.0000 0.03740  0.70381  0.37213  Biso   1.000  C
  H71      1.0000 0.13559  0.65569  0.38459  Biso   1.000  H
  C62      1.0000 0.22203  0.83250  0.38482  Biso   1.000  C
  C63      1.0000 0.05873  0.29877  0.46456  Biso   1.000  C
  H72      1.0000 0.01466  0.37032  0.48250  Biso   1.000  H
  C64      1.0000 0.18865  0.46269  0.48076  Biso   1.000  C
  C65      1.0000 0.84118  0.56770  0.37596  Biso   1.000  C
  C66      1.0000 0.77868  0.36257  0.37572  Biso   1.000  C
  C67      1.0000 0.72650  0.15878  0.37596  Biso   1.000  C
  C68      1.0000 0.59011  0.97227  0.40897  Biso   1.000  C
  C69      1.0000 0.74701  0.07501  0.42811  Biso   1.000  C
  C70      1.0000 0.91363  0.19789  0.44570  Biso   1.000  C
  N9       1.0000 0.93974  0.58818  0.37246  Biso   1.000  N
  C71      1.0000 0.09751  0.72024  0.35591  Biso   1.000  C
  H73      1.0000 0.01141  0.75986  0.37329  Biso   1.000  H
  H74      1.0000 0.20164  0.89200  0.38600  Biso   1.000  H
  H75      1.0000 0.27268  0.84009  0.39360  Biso   1.000  H
  C72      1.0000 0.28270  0.84742  0.36924  Biso   1.000  C
  N10      1.0000 0.94224  0.23059  0.45972  Biso   1.000  N
  C73      1.0000 0.08627  0.22115  0.47505  Biso   1.000  C
  H76      1.0000 0.10913  0.32540  0.45511  Biso   1.000  H
  H77      1.0000 0.24366  0.49842  0.47210  Biso   1.000  H
  H78      1.0000 0.19329  0.52379  0.48750  Biso   1.000  H
  C74      1.0000 0.22125  0.39215  0.49024  Biso   1.000  C
  C75      1.0000 0.80854  0.65510  0.38104  Biso   1.000  C
  H79      1.0000 0.85604  0.38313  0.37570  Biso   1.000  H
  N11      1.0000 0.64852  0.06034  0.37246  Biso   1.000  N
  C76      1.0000 0.84663  0.19148  0.38104  Biso   1.000  C
  N12      1.0000 0.64565  0.94176  0.40067  Biso   1.000  N
  C77      1.0000 0.48483  0.97076  0.40474  Biso   1.000  C
  H80      1.0000 0.79732  0.08394  0.41980  Biso   1.000  H
  C78      1.0000 0.98704  0.24399  0.43110  Biso   1.000  C
  C79      1.0000 0.00204  0.19603  0.43350  Biso   1.000  C
  C80      1.0000 0.20362  0.83495  0.35521  Biso   1.000  C
  H81      1.0000 0.11734  0.66049  0.35441  Biso   1.000  H
  H82      1.0000 0.04592  0.71384  0.34730  Biso   1.000  H
  H83      1.0000 0.30611  0.79003  0.36830  Biso   1.000  H
  H84      1.0000 0.35121  0.92285  0.36890  Biso   1.000  H
  C81      1.0000 0.21137  0.29573  0.48073  Biso   1.000  C
  H85      1.0000 0.03460  0.19241  0.48420  Biso   1.000  H
  H86      1.0000 0.07763  0.15600  0.46890  Biso   1.000  H
  H87      1.0000 0.17179  0.36257  0.49960  Biso   1.000  H
  H88      1.0000 0.29982  0.43892  0.49390  Biso   1.000  H
  H89      1.0000 0.87035  0.71494  0.38710  Biso   1.000  H
  H90      1.0000 0.74054  0.61852  0.38760  Biso   1.000  H
  H91      1.0000 0.79385  0.68763  0.37170  Biso   1.000  H
  C82      1.0000 0.66639  0.96266  0.37213  Biso   1.000  C
  H92      1.0000 0.84465  0.12970  0.38710  Biso   1.000  H
  H93      1.0000 0.87801  0.25949  0.38760  Biso   1.000  H
  H94      1.0000 0.89386  0.20623  0.37170  Biso   1.000  H
  C83      1.0000 0.60121  0.88572  0.38553  Biso   1.000  C
  H95      1.0000 0.47579  0.02377  0.41150  Biso   1.000  H
  H96      1.0000 0.42072  0.89465  0.40630  Biso   1.000  H
  H97      1.0000 0.48820  0.99267  0.39370  Biso   1.000  H
  H98      1.0000 0.97513  0.19317  0.42270  Biso   1.000  H
  H99      1.0000 0.94327  0.25031  0.42250  Biso   1.000  H
  H100     1.0000 0.07543  0.26472  0.43490  Biso   1.000  H
  H101     1.0000 0.01414  0.19249  0.42800  Biso   1.000  H
  H102     1.0000 0.05187  0.31832  0.43340  Biso   1.000  H
  H103     1.0000 0.00961  0.12987  0.43550  Biso   1.000  H
  H104     1.0000 0.18355  0.89495  0.35580  Biso   1.000  H
  H105     1.0000 0.24325  0.84312  0.34510  Biso   1.000  H
  H106     1.0000 0.23351  0.24980  0.48720  Biso   1.000  H
  H107     1.0000 0.26224  0.32464  0.47150  Biso   1.000  H
  C84      1.0000 0.62277  0.90257  0.35591  Biso   1.000  C
  H108     1.0000 0.74846  0.98871  0.37329  Biso   1.000  H
  H109     1.0000 0.52015  0.86448  0.38459  Biso   1.000  H
  C85      1.0000 0.61045  0.77809  0.38482  Biso   1.000  C
  C86      1.0000 0.63125  0.79647  0.35521  Biso   1.000  C
  H110     1.0000 0.54317  0.88277  0.35441  Biso   1.000  H
  H111     1.0000 0.66797  0.95415  0.34730  Biso   1.000  H
  H112     1.0000 0.69036  0.79849  0.38600  Biso   1.000  H
  H113     1.0000 0.56742  0.72736  0.39360  Biso   1.000  H
  C87      1.0000 0.56479  0.71741  0.36924  Biso   1.000  C
  H114     1.0000 0.71146  0.81661  0.35580  Biso   1.000  H
  H115     1.0000 0.59984  0.75686  0.34510  Biso   1.000  H
  H116     1.0000 0.48388  0.69398  0.36830  Biso   1.000  H
  H117     1.0000 0.57169  0.64890  0.36890  Biso   1.000  H
  C88      1.0000 0.45068  0.57672  0.52299  Biso   1.000  C
  C89      1.0000 0.48581  0.52143  0.53568  Biso   1.000  C
  H118     1.0000 0.50348  0.59939  0.51410  Biso   1.000  H
  H119     1.0000 0.45134  0.64313  0.52740  Biso   1.000  H
  H120     1.0000 0.37459  0.52278  0.51930  Biso   1.000  H
  N13      1.0000 0.58132  0.53087  0.53666  Biso   1.000  N
  C90      1.0000 0.39982  0.45207  0.54780  Biso   1.000  C
  C91      1.0000 0.67342  0.60209  0.52619  Biso   1.000  C
  C92      1.0000 0.43830  0.44204  0.56310  Biso   1.000  C
  C93      1.0000 0.28501  0.40142  0.54593  Biso   1.000  C
  C94      1.0000 0.72590  0.53728  0.51924  Biso   1.000  C
  H121     1.0000 0.64433  0.62973  0.51750  Biso   1.000  H
  C95      1.0000 0.75991  0.70120  0.53544  Biso   1.000  C
  C96      1.0000 0.36448  0.37892  0.57446  Biso   1.000  C
  H122     1.0000 0.51695  0.48022  0.56530  Biso   1.000  H
  C97      1.0000 0.20863  0.33450  0.55714  Biso   1.000  C
  H123     1.0000 0.25695  0.41347  0.53630  Biso   1.000  H
  C98      1.0000 0.82909  0.60790  0.50976  Biso   1.000  C
  H124     1.0000 0.74523  0.50163  0.52790  Biso   1.000  H
  H125     1.0000 0.66952  0.47617  0.51250  Biso   1.000  H
  C99      1.0000 0.86511  0.77890  0.52495  Biso   1.000  C
  N14      1.0000 0.71160  0.76938  0.54028  Biso   1.000  N
  H126     1.0000 0.78372  0.67465  0.54489  Biso   1.000  H
  C100     1.0000 0.25298  0.32801  0.57189  Biso   1.000  C
  C101     1.0000 0.40995  0.38212  0.59103  Biso   1.000  C
  C102     1.0000 0.08637  0.28427  0.55430  Biso   1.000  C
  H127     1.0000 0.80917  0.63740  0.50040  Biso   1.000  H
  H128     1.0000 0.86096  0.56113  0.50610  Biso   1.000  H
  C103     1.0000 0.91562  0.70432  0.51927  Biso   1.000  C
  H129     1.0000 0.84226  0.80764  0.51580  Biso   1.000  H
  H130     1.0000 0.92162  0.84405  0.53110  Biso   1.000  H
  C104     1.0000 0.71569  0.80208  0.55430  Biso   1.000  C
  H131     1.0000 0.20273  0.28663  0.58020  Biso   1.000  H
  N15      1.0000 0.35437  0.29607  0.59933  Biso   1.000  N
  C105     1.0000 0.51506  0.48578  0.59526  Biso   1.000  C
  N16      1.0000 0.05778  0.28840  0.54028  Biso   1.000  N
  C106     1.0000 0.01294  0.25697  0.56890  Biso   1.000  C
  C107     1.0000 0.99803  0.19401  0.56650  Biso   1.000  C
  H132     1.0000 0.98377  0.75025  0.51280  Biso   1.000  H
  H133     1.0000 0.93759  0.67541  0.52850  Biso   1.000  H
  C108     1.0000 0.66552  0.87414  0.55714  Biso   1.000  C
  C109     1.0000 0.80599  0.80402  0.56650  Biso   1.000  C
  C110     1.0000 0.74304  0.75606  0.56890  Biso   1.000  C
  C111     1.0000 0.39889  0.28452  0.61447  Biso   1.000  C
  H134     1.0000 0.52419  0.54798  0.58850  Biso   1.000  H
  H135     1.0000 0.57933  0.47390  0.59370  Biso   1.000  H
  H136     1.0000 0.51182  0.50441  0.60630  Biso   1.000  H
  C112     1.0000 0.94131  0.24011  0.53544  Biso   1.000  C
  H137     1.0000 0.02490  0.21811  0.57730  Biso   1.000  H
  H138     1.0000 0.05677  0.30711  0.57750  Biso   1.000  H
  H139     1.0000 0.92458  0.18929  0.56510  Biso   1.000  H
  H140     1.0000 0.98582  0.17833  0.57200  Biso   1.000  H
  H141     1.0000 0.94811  0.26640  0.56660  Biso   1.000  H
  H142     1.0000 0.99036  0.12027  0.56450  Biso   1.000  H
  C113     1.0000 0.67199  0.92504  0.57189  Biso   1.000  C
  C114     1.0000 0.59861  0.88366  0.54593  Biso   1.000  C
  H143     1.0000 0.81070  0.73533  0.56510  Biso   1.000  H
  H144     1.0000 0.78191  0.80680  0.57730  Biso   1.000  H
  H145     1.0000 0.87968  0.87009  0.56450  Biso   1.000  H
  H146     1.0000 0.82170  0.80756  0.57200  Biso   1.000  H
  H147     1.0000 0.73361  0.68173  0.56660  Biso   1.000  H
  H148     1.0000 0.69288  0.74974  0.57750  Biso   1.000  H
  H149     1.0000 0.47993  0.34428  0.61541  Biso   1.000  H
  C115     1.0000 0.38952  0.16755  0.61518  Biso   1.000  C
  C116     1.0000 0.33365  0.29624  0.62787  Biso   1.000  C
  C117     1.0000 0.92871  0.32658  0.52619  Biso   1.000  C
  C118     1.0000 0.91383  0.13493  0.52495  Biso   1.000  C
  H150     1.0000 0.89089  0.21634  0.54489  Biso   1.000  H
  H151     1.0000 0.71344  0.91611  0.58020  Biso   1.000  H
  C119     1.0000 0.62113  0.98564  0.57446  Biso   1.000  C
  C120     1.0000 0.54794  0.94771  0.54780  Biso   1.000  C
  H152     1.0000 0.58650  0.84354  0.53630  Biso   1.000  H
  H153     1.0000 0.30958  0.10796  0.61400  Biso   1.000  H
  H154     1.0000 0.43261  0.15988  0.60640  Biso   1.000  H
  C121     1.0000 0.43534  0.15263  0.63076  Biso   1.000  C
  N17      1.0000 0.35150  0.41179  0.62754  Biso   1.000  N
  C122     1.0000 0.37733  0.27980  0.64409  Biso   1.000  C
  H155     1.0000 0.25162  0.24019  0.62671  Biso   1.000  H
  N18      1.0000 0.94959  0.41870  0.53666  Biso   1.000  N
  H156     1.0000 0.98540  0.35574  0.51750  Biso   1.000  H
  C123     1.0000 0.81137  0.27407  0.51924  Biso   1.000  C
  C124     1.0000 0.78870  0.08436  0.51927  Biso   1.000  C
  H157     1.0000 0.96539  0.15777  0.51580  Biso   1.000  H
  H158     1.0000 0.92241  0.07838  0.53110  Biso   1.000  H
  C125     1.0000 0.55802  0.99634  0.56310  Biso   1.000  C
  C126     1.0000 0.61790  0.02778  0.59103  Biso   1.000  C
  C127     1.0000 0.47862  0.96440  0.53568  Biso   1.000  C
  H159     1.0000 0.51615  0.21002  0.63170  Biso   1.000  H
  H160     1.0000 0.42843  0.07720  0.63110  Biso   1.000  H
  C128     1.0000 0.36873  0.16510  0.64479  Biso   1.000  C
  C129     1.0000 0.27354  0.43235  0.62404  Biso   1.000  C
  H161     1.0000 0.45680  0.33947  0.64559  Biso   1.000  H
  H162     1.0000 0.33214  0.28621  0.65270  Biso   1.000  H
  C130     1.0000 0.03558  0.51418  0.53568  Biso   1.000  C
  H163     1.0000 0.75639  0.25477  0.52790  Biso   1.000  H
  H164     1.0000 0.80668  0.33054  0.51250  Biso   1.000  H
  C131     1.0000 0.77877  0.17092  0.50976  Biso   1.000  C
  H165     1.0000 0.76647  0.01627  0.51280  Biso   1.000  H
  H166     1.0000 0.73777  0.06237  0.52850  Biso   1.000  H
  H167     1.0000 0.51985  0.03663  0.56530  Biso   1.000  H
  N19      1.0000 0.70383  0.05820  0.59933  Biso   1.000  N
  C132     1.0000 0.51424  0.02921  0.59526  Biso   1.000  C
  C133     1.0000 0.42330  0.87405  0.52299  Biso   1.000  C
  N20      1.0000 0.46913  0.05036  0.53666  Biso   1.000  N
  H168     1.0000 0.28859  0.10510  0.64420  Biso   1.000  H
  H169     1.0000 0.40012  0.15693  0.65490  Biso   1.000  H
  C134     1.0000 0.30330  0.55464  0.62424  Biso   1.000  C
  C135     1.0000 0.15338  0.34487  0.61896  Biso   1.000  C
  C136     1.0000 0.12599  0.54933  0.52299  Biso   1.000  C
  C137     1.0000 0.05232  0.60023  0.54780  Biso   1.000  C
  H170     1.0000 0.82820  0.19081  0.50040  Biso   1.000  H
  H171     1.0000 0.70018  0.13914  0.50610  Biso   1.000  H
  C138     1.0000 0.71555  0.11433  0.61447  Biso   1.000  C
  H172     1.0000 0.45197  0.97620  0.58850  Biso   1.000  H
  H173     1.0000 0.52616  0.10531  0.59370  Biso   1.000  H
  H174     1.0000 0.49555  0.00730  0.60630  Biso   1.000  H
  H175     1.0000 0.40061  0.90414  0.51410  Biso   1.000  H
  H176     1.0000 0.35689  0.80823  0.52740  Biso   1.000  H
  H177     1.0000 0.47721  0.85180  0.51930  Biso   1.000  H
  C139     1.0000 0.39791  0.07126  0.52619  Biso   1.000  C
  C140     1.0000 0.22129  0.58388  0.62428  Biso   1.000  C
  C141     1.0000 0.41614  0.63740  0.62428  Biso   1.000  C
  H178     1.0000 0.15540  0.28511  0.61290  Biso   1.000  H
  H179     1.0000 0.12201  0.38153  0.61240  Biso   1.000  H
  H180     1.0000 0.10621  0.31242  0.62830  Biso   1.000  H
  H181     1.0000 0.09592  0.49648  0.51410  Biso   1.000  H
  H182     1.0000 0.19182  0.54874  0.52740  Biso   1.000  H
  H183     1.0000 0.14820  0.62543  0.51930  Biso   1.000  H
  C142     1.0000 0.00373  0.56172  0.56310  Biso   1.000  C
  C143     1.0000 0.11643  0.71502  0.54593  Biso   1.000  C
  H184     1.0000 0.65566  0.13557  0.61541  Biso   1.000  H
  C144     1.0000 0.83249  0.22195  0.61518  Biso   1.000  C
  C145     1.0000 0.70382  0.03730  0.62787  Biso   1.000  C
  H185     1.0000 0.37028  0.01455  0.51750  Biso   1.000  H
  C146     1.0000 0.46277  0.18858  0.51924  Biso   1.000  C
  C147     1.0000 0.29874  0.05862  0.53544  Biso   1.000  C
  H186     1.0000 0.14399  0.52708  0.62430  Biso   1.000  H
  C148     1.0000 0.25129  0.69673  0.62424  Biso   1.000  C
  C149     1.0000 0.44538  0.74873  0.62424  Biso   1.000  C
  H187     1.0000 0.47290  0.61692  0.62430  Biso   1.000  H
  C150     1.0000 0.01444  0.63554  0.57446  Biso   1.000  C
  H188     1.0000 0.96331  0.48308  0.56530  Biso   1.000  H
  C151     1.0000 0.12585  0.79138  0.55714  Biso   1.000  C
  H189     1.0000 0.15648  0.74300  0.53630  Biso   1.000  H
  H190     1.0000 0.89200  0.20156  0.61400  Biso   1.000  H
  H191     1.0000 0.84008  0.27261  0.60640  Biso   1.000  H
  C152     1.0000 0.84743  0.28264  0.63076  Biso   1.000  C
  N21      1.0000 0.58824  0.93971  0.62754  Biso   1.000  N
  C153     1.0000 0.72019  0.09748  0.64409  Biso   1.000  C
  H192     1.0000 0.75981  0.01134  0.62671  Biso   1.000  H
  H193     1.0000 0.49842  0.24353  0.52790  Biso   1.000  H
  H194     1.0000 0.52377  0.19322  0.51250  Biso   1.000  H
  C154     1.0000 0.39203  0.22111  0.50976  Biso   1.000  C
  N22      1.0000 0.23062  0.94223  0.54028  Biso   1.000  N
  C155     1.0000 0.22103  0.08610  0.52495  Biso   1.000  C
  H195     1.0000 0.32540  0.10902  0.54489  Biso   1.000  H
  C156     1.0000 0.36258  0.77873  0.62428  Biso   1.000  C
  C157     1.0000 0.15880  0.72648  0.62404  Biso   1.000  C
  C158     1.0000 0.56766  0.84118  0.62404  Biso   1.000  C
  C159     1.0000 0.07500  0.74705  0.57189  Biso   1.000  C
  C160     1.0000 0.97224  0.59012  0.59103  Biso   1.000  C
  C161     1.0000 0.19790  0.91358  0.55430  Biso   1.000  C
  H196     1.0000 0.79003  0.30606  0.63170  Biso   1.000  H
  H197     1.0000 0.92286  0.35115  0.63110  Biso   1.000  H
  C162     1.0000 0.83499  0.20358  0.64479  Biso   1.000  C
  H198     1.0000 0.66046  0.11728  0.64559  Biso   1.000  H
  H199     1.0000 0.71377  0.04581  0.65270  Biso   1.000  H
  H200     1.0000 0.36259  0.17172  0.50040  Biso   1.000  H
  H201     1.0000 0.43894  0.29974  0.50610  Biso   1.000  H
  C163     1.0000 0.29565  0.21125  0.51927  Biso   1.000  C
  H202     1.0000 0.19232  0.03452  0.51580  Biso   1.000  H
  H203     1.0000 0.15593  0.07750  0.53110  Biso   1.000  H
  H204     1.0000 0.38312  0.85602  0.62430  Biso   1.000  H
  N23      1.0000 0.06034  0.64852  0.62754  Biso   1.000  N
  C164     1.0000 0.19148  0.84658  0.61896  Biso   1.000  C
  C165     1.0000 0.65510  0.80848  0.61896  Biso   1.000  C
  H205     1.0000 0.08396  0.79736  0.58020  Biso   1.000  H
  N24      1.0000 0.94165  0.64557  0.59933  Biso   1.000  N
  C166     1.0000 0.97074  0.48494  0.59526  Biso   1.000  C
  C167     1.0000 0.24402  0.98699  0.56890  Biso   1.000  C
  C168     1.0000 0.19601  0.00190  0.56650  Biso   1.000  C
  H206     1.0000 0.89491  0.18344  0.64420  Biso   1.000  H
  H207     1.0000 0.84307  0.24311  0.65490  Biso   1.000  H
  H208     1.0000 0.24980  0.23342  0.51280  Biso   1.000  H
  H209     1.0000 0.32460  0.26216  0.52850  Biso   1.000  H
  C169     1.0000 0.96257  0.66639  0.62787  Biso   1.000  C
  H210     1.0000 0.12971  0.84464  0.61290  Biso   1.000  H
  H211     1.0000 0.25953  0.87801  0.61240  Biso   1.000  H
  H212     1.0000 0.20622  0.89386  0.62830  Biso   1.000  H
  H213     1.0000 0.71493  0.87034  0.61290  Biso   1.000  H
  H214     1.0000 0.61851  0.74056  0.61240  Biso   1.000  H
  H215     1.0000 0.68762  0.79382  0.62830  Biso   1.000  H
  C170     1.0000 0.88560  0.60107  0.61447  Biso   1.000  C
  H216     1.0000 0.02385  0.47584  0.58850  Biso   1.000  H
  H217     1.0000 0.89462  0.42072  0.59370  Biso   1.000  H
  H218     1.0000 0.99260  0.48823  0.60630  Biso   1.000  H
  H219     1.0000 0.19319  0.97510  0.57730  Biso   1.000  H
  H220     1.0000 0.25033  0.94325  0.57750  Biso   1.000  H
  H221     1.0000 0.26468  0.07531  0.56510  Biso   1.000  H
  H222     1.0000 0.19241  0.01412  0.57200  Biso   1.000  H
  H223     1.0000 0.31829  0.05188  0.56660  Biso   1.000  H
  H224     1.0000 0.12992  0.00957  0.56450  Biso   1.000  H
  C171     1.0000 0.90249  0.62273  0.64409  Biso   1.000  C
  H225     1.0000 0.98860  0.74839  0.62671  Biso   1.000  H
  H226     1.0000 0.86438  0.52008  0.61541  Biso   1.000  H
  C172     1.0000 0.77800  0.61051  0.61518  Biso   1.000  C
  C173     1.0000 0.79643  0.63133  0.64479  Biso   1.000  C
  H227     1.0000 0.88271  0.54318  0.64559  Biso   1.000  H
  H228     1.0000 0.95413  0.66791  0.65270  Biso   1.000  H
  H229     1.0000 0.79838  0.69041  0.61400  Biso   1.000  H
  H230     1.0000 0.72734  0.56745  0.60640  Biso   1.000  H
  C174     1.0000 0.71731  0.56475  0.63076  Biso   1.000  C
  H231     1.0000 0.81647  0.71140  0.64420  Biso   1.000  H
  H232     1.0000 0.75678  0.59989  0.65490  Biso   1.000  H
  H233     1.0000 0.69390  0.48393  0.63170  Biso   1.000  H
  H234     1.0000 0.64875  0.57158  0.63110  Biso   1.000  H
  C175     1.0000 0.23587  0.28941  0.31076  Biso   1.000  C
  C176     1.0000 0.29594  0.33307  0.29453  Biso   1.000  C
  C177     1.0000 0.12974  0.29801  0.31146  Biso   1.000  C
  H235     1.0000 0.21601  0.20985  0.31227  Biso   1.000  H
  H236     1.0000 0.28743  0.33459  0.31936  Biso   1.000  H
  C178     1.0000 0.21891  0.26775  0.28115  Biso   1.000  C
  N25      1.0000 0.39364  0.31520  0.29420  Biso   1.000  N
  H237     1.0000 0.32191  0.41507  0.29337  Biso   1.000  H
  C179     1.0000 0.05064  0.23134  0.29742  Biso   1.000  C
  H238     1.0000 0.14984  0.37807  0.31087  Biso   1.000  H
  H239     1.0000 0.09015  0.26657  0.32157  Biso   1.000  H
  N26      1.0000 0.27502  0.31225  0.26600  Biso   1.000  N
  H240     1.0000 0.19775  0.18676  0.28207  Biso   1.000  H
  C180     1.0000 0.11137  0.27719  0.28184  Biso   1.000  C
  C181     1.0000 0.49211  0.39316  0.29071  Biso   1.000  C
  H241     1.0000 0.02728  0.15061  0.29836  Biso   1.000  H
  H242     1.0000 0.98213  0.23826  0.29776  Biso   1.000  H
  C182     1.0000 0.30554  0.25680  0.25770  Biso   1.000  C
  H243     1.0000 0.13176  0.35709  0.28067  Biso   1.000  H
  H244     1.0000 0.06060  0.23404  0.27307  Biso   1.000  H
  C183     1.0000 0.58467  0.36341  0.29091  Biso   1.000  C
  C184     1.0000 0.52486  0.51326  0.28563  Biso   1.000  C
  C185     1.0000 0.34770  0.30214  0.24112  Biso   1.000  C
  C186     1.0000 0.30400  0.15153  0.26193  Biso   1.000  C
  C187     1.0000 0.55466  0.25056  0.29094  Biso   1.000  C
  C188     1.0000 0.69596  0.44541  0.29094  Biso   1.000  C
  H245     1.0000 0.46309  0.51132  0.27957  Biso   1.000  H
  H246     1.0000 0.59283  0.54469  0.27906  Biso   1.000  H
  H247     1.0000 0.53955  0.56045  0.29497  Biso   1.000  H
  C189     1.0000 0.40834  0.41364  0.23855  Biso   1.000  C
  C190     1.0000 0.33703  0.22839  0.22976  Biso   1.000  C
  H248     1.0000 0.35711  0.14243  0.25517  Biso   1.000  H
  H249     1.0000 0.22792  0.08740  0.26036  Biso   1.000  H
  H250     1.0000 0.32597  0.15490  0.27297  Biso   1.000  H
  H251     1.0000 0.47736  0.19376  0.29096  Biso   1.000  H
  C191     1.0000 0.63664  0.22123  0.29091  Biso   1.000  C
  C192     1.0000 0.77876  0.41541  0.29091  Biso   1.000  C
  H252     1.0000 0.71642  0.52270  0.29096  Biso   1.000  H
  C193     1.0000 0.45923  0.45805  0.22381  Biso   1.000  C
  H253     1.0000 0.41722  0.46395  0.24687  Biso   1.000  H
  H254     1.0000 0.29662  0.14976  0.23197  Biso   1.000  H
  C194     1.0000 0.38563  0.26691  0.21448  Biso   1.000  C
  C195     1.0000 0.60680  0.09894  0.29071  Biso   1.000  C
  C196     1.0000 0.74944  0.30408  0.29094  Biso   1.000  C
  C197     1.0000 0.90104  0.50786  0.29071  Biso   1.000  C
  C198     1.0000 0.44974  0.38170  0.21259  Biso   1.000  C
  C199     1.0000 0.53121  0.58026  0.22097  Biso   1.000  C
  C200     1.0000 0.36895  0.18086  0.20234  Biso   1.000  C
  N27      1.0000 0.68488  0.07846  0.29420  Biso   1.000  N
  C201     1.0000 0.48676  0.01155  0.28563  Biso   1.000  C
  H255     1.0000 0.80628  0.28360  0.29096  Biso   1.000  H
  N28      1.0000 0.92154  0.60638  0.29420  Biso   1.000  N
  C202     1.0000 0.98848  0.47516  0.28563  Biso   1.000  C
  H256     1.0000 0.48985  0.40968  0.20297  Biso   1.000  H
  N29      1.0000 0.56393  0.60891  0.20695  Biso   1.000  N
  C203     1.0000 0.52936  0.66867  0.23317  Biso   1.000  C
  C204     1.0000 0.57732  0.65366  0.23557  Biso   1.000  C
  N30      1.0000 0.28296  0.08537  0.20333  Biso   1.000  N
  C205     1.0000 0.45936  0.21601  0.18965  Biso   1.000  C
  C206     1.0000 0.66696  0.96292  0.29453  Biso   1.000  C
  H257     1.0000 0.45539  0.04821  0.27906  Biso   1.000  H
  H258     1.0000 0.48882  0.95188  0.27957  Biso   1.000  H
  H259     1.0000 0.43956  0.97918  0.29497  Biso   1.000  H
  C207     1.0000 0.03716  0.70406  0.29453  Biso   1.000  C
  H260     1.0000 0.95184  0.40715  0.27906  Biso   1.000  H
  H261     1.0000 0.04827  0.53694  0.27957  Biso   1.000  H
  H262     1.0000 0.02099  0.46050  0.29497  Biso   1.000  H
  C208     1.0000 0.63216  0.72539  0.20211  Biso   1.000  C
  H263     1.0000 0.59803  0.74207  0.23177  Biso   1.000  H
  H264     1.0000 0.52657  0.64178  0.24396  Biso   1.000  H
  H265     1.0000 0.46323  0.67625  0.23116  Biso   1.000  H
  H266     1.0000 0.52583  0.68089  0.23867  Biso   1.000  H
  H267     1.0000 0.65167  0.71856  0.23326  Biso   1.000  H
  H268     1.0000 0.58366  0.60984  0.24416  Biso   1.000  H
  C209     1.0000 0.26198  0.99334  0.19286  Biso   1.000  C
  H269     1.0000 0.42922  0.16316  0.18077  Biso   1.000  H
  H270     1.0000 0.52515  0.21533  0.19407  Biso   1.000  H
  H271     1.0000 0.48158  0.29211  0.18596  Biso   1.000  H
  C210     1.0000 0.73230  0.95129  0.28115  Biso   1.000  C
  C211     1.0000 0.71060  0.94657  0.31076  Biso   1.000  C
  H272     1.0000 0.58496  0.90696  0.29337  Biso   1.000  H
  C212     1.0000 0.04889  0.78109  0.28115  Biso   1.000  C
  C213     1.0000 0.05356  0.76415  0.31076  Biso   1.000  C
  H273     1.0000 0.09316  0.67811  0.29337  Biso   1.000  H
  C214     1.0000 0.73121  0.73794  0.19286  Biso   1.000  C
  C215     1.0000 0.55445  0.75286  0.19161  Biso   1.000  C
  H274     1.0000 0.65875  0.77578  0.21157  Biso   1.000  H
  H275     1.0000 0.31874  0.02233  0.18416  Biso   1.000  H
  C216     1.0000 0.14479  0.94084  0.18590  Biso   1.000  C
  C217     1.0000 0.27473  0.90687  0.20211  Biso   1.000  C
  H276     1.0000 0.81323  0.01096  0.28207  Biso   1.000  H
  N31      1.0000 0.68779  0.96283  0.26600  Biso   1.000  N
  C218     1.0000 0.72289  0.83422  0.28184  Biso   1.000  C
  H277     1.0000 0.79017  0.00615  0.31227  Biso   1.000  H
  C219     1.0000 0.70208  0.83186  0.31146  Biso   1.000  C
  H278     1.0000 0.66549  0.95297  0.31936  Biso   1.000  H
  H279     1.0000 0.98904  0.80225  0.28207  Biso   1.000  H
  N32      1.0000 0.03725  0.72496  0.26600  Biso   1.000  N
  C220     1.0000 0.16584  0.88872  0.28184  Biso   1.000  C
  H280     1.0000 0.99383  0.78396  0.31227  Biso   1.000  H
  C221     1.0000 0.16822  0.87026  0.31146  Biso   1.000  C
  H281     1.0000 0.04719  0.71258  0.31936  Biso   1.000  H
  N33      1.0000 0.80243  0.71704  0.20333  Biso   1.000  N
  H282     1.0000 0.70369  0.68131  0.18416  Biso   1.000  H
  C222     1.0000 0.79607  0.85526  0.18590  Biso   1.000  C
  C223     1.0000 0.62907  0.87801  0.18594  Biso   1.000  C
  H283     1.0000 0.52574  0.70128  0.18246  Biso   1.000  H
  H284     1.0000 0.48935  0.74426  0.19777  Biso   1.000  H
  H285     1.0000 0.08966  0.92154  0.19457  Biso   1.000  H
  H286     1.0000 0.14006  0.99722  0.17916  Biso   1.000  H
  C224     1.0000 0.11211  0.83768  0.17643  Biso   1.000  C
  N34      1.0000 0.39120  0.95516  0.20695  Biso   1.000  N
  C225     1.0000 0.24713  0.80161  0.19161  Biso   1.000  C
  H287     1.0000 0.22419  0.88302  0.21157  Biso   1.000  H
  C226     1.0000 0.74325  0.04880  0.25770  Biso   1.000  C
  H288     1.0000 0.64293  0.77472  0.28067  Biso   1.000  H
  H289     1.0000 0.76589  0.82664  0.27307  Biso   1.000  H
  C227     1.0000 0.76857  0.81931  0.29742  Biso   1.000  C
  H290     1.0000 0.62201  0.77186  0.31087  Biso   1.000  H
  H291     1.0000 0.73349  0.82360  0.32157  Biso   1.000  H
  C228     1.0000 0.95127  0.69446  0.25770  Biso   1.000  C
  H292     1.0000 0.22534  0.86832  0.28067  Biso   1.000  H
  H293     1.0000 0.17343  0.93937  0.27307  Biso   1.000  H
  C229     1.0000 0.18078  0.94940  0.29742  Biso   1.000  C
  H294     1.0000 0.22825  0.85020  0.31087  Biso   1.000  H
  H295     1.0000 0.17642  0.90987  0.32157  Biso   1.000  H
  C230     1.0000 0.81193  0.63108  0.20234  Biso   1.000  C
  H296     1.0000 0.83176  0.91029  0.19457  Biso   1.000  H
  H297     1.0000 0.85718  0.85998  0.17916  Biso   1.000  H
  C231     1.0000 0.72545  0.88787  0.17643  Biso   1.000  C
  H298     1.0000 0.58315  0.90018  0.17947  Biso   1.000  H
  H299     1.0000 0.65795  0.92892  0.19517  Biso   1.000  H
  H300     1.0000 0.16154  0.85757  0.16706  Biso   1.000  H
  H301     1.0000 0.03356  0.80582  0.17277  Biso   1.000  H
  C232     1.0000 0.12204  0.75113  0.18594  Biso   1.000  C
  C233     1.0000 0.41979  0.95103  0.22097  Biso   1.000  C
  H302     1.0000 0.29873  0.82453  0.18246  Biso   1.000  H
  H303     1.0000 0.25575  0.74514  0.19777  Biso   1.000  H
  C234     1.0000 0.69786  0.04559  0.24112  Biso   1.000  C
  C235     1.0000 0.84844  0.15246  0.26193  Biso   1.000  C
  H304     1.0000 0.84942  0.87678  0.29836  Biso   1.000  H
  H305     1.0000 0.76177  0.74396  0.29776  Biso   1.000  H
  C236     1.0000 0.95451  0.65232  0.24112  Biso   1.000  C
  C237     1.0000 0.84751  0.69597  0.26193  Biso   1.000  C
  H306     1.0000 0.12337  0.97283  0.29836  Biso   1.000  H
  H307     1.0000 0.25616  0.01783  0.29776  Biso   1.000  H
  C238     1.0000 0.88124  0.61439  0.21448  Biso   1.000  C
  C239     1.0000 0.75664  0.54065  0.18965  Biso   1.000  C
  H308     1.0000 0.69594  0.83849  0.16706  Biso   1.000  H
  H309     1.0000 0.77228  0.96651  0.17277  Biso   1.000  H
  H310     1.0000 0.09982  0.68303  0.17947  Biso   1.000  H
  H311     1.0000 0.07112  0.72913  0.19517  Biso   1.000  H
  C240     1.0000 0.54194  0.00118  0.22381  Biso   1.000  C
  C241     1.0000 0.33138  0.86077  0.23317  Biso   1.000  C
  C242     1.0000 0.34636  0.92373  0.23557  Biso   1.000  C
  C243     1.0000 0.58632  0.99477  0.23855  Biso   1.000  C
  C244     1.0000 0.77164  0.10864  0.22976  Biso   1.000  C
  H312     1.0000 0.85757  0.21466  0.25517  Biso   1.000  H
  H313     1.0000 0.91264  0.14058  0.26036  Biso   1.000  H
  H314     1.0000 0.84520  0.17109  0.27297  Biso   1.000  H
  C245     1.0000 0.89140  0.66302  0.22976  Biso   1.000  C
  C246     1.0000 0.00537  0.59172  0.23855  Biso   1.000  C
  H315     1.0000 0.78535  0.64288  0.25517  Biso   1.000  H
  H316     1.0000 0.85943  0.77208  0.26036  Biso   1.000  H
  H317     1.0000 0.82896  0.67406  0.27297  Biso   1.000  H
  C247     1.0000 0.93194  0.55025  0.21259  Biso   1.000  C
  H318     1.0000 0.73399  0.57082  0.18077  Biso   1.000  H
  H319     1.0000 0.69027  0.47491  0.19407  Biso   1.000  H
  H320     1.0000 0.81059  0.51848  0.18596  Biso   1.000  H
  C248     1.0000 0.61839  0.06810  0.21259  Biso   1.000  C
  H321     1.0000 0.25800  0.85605  0.23177  Biso   1.000  H
  H322     1.0000 0.35825  0.88488  0.24396  Biso   1.000  H
  H323     1.0000 0.32370  0.78703  0.23116  Biso   1.000  H
  H324     1.0000 0.31912  0.84501  0.23867  Biso   1.000  H
  H325     1.0000 0.28141  0.93308  0.23326  Biso   1.000  H
  H326     1.0000 0.39008  0.97379  0.24416  Biso   1.000  H
  H327     1.0000 0.53610  0.95331  0.24687  Biso   1.000  H
  C249     1.0000 0.73312  0.11875  0.21448  Biso   1.000  C
  H328     1.0000 0.85025  0.14690  0.23197  Biso   1.000  H
  H329     1.0000 0.85319  0.70339  0.23197  Biso   1.000  H
  C250     1.0000 0.99889  0.54082  0.22381  Biso   1.000  C
  H330     1.0000 0.04674  0.58279  0.24687  Biso   1.000  H
  H331     1.0000 0.91984  0.51014  0.20297  Biso   1.000  H
  H332     1.0000 0.59033  0.08015  0.20297  Biso   1.000  H
  C251     1.0000 0.81918  0.18811  0.20234  Biso   1.000  C
  C252     1.0000 0.04906  0.46876  0.22097  Biso   1.000  C
  N35      1.0000 0.91463  0.19755  0.20333  Biso   1.000  N
  C253     1.0000 0.78406  0.24340  0.18965  Biso   1.000  C
  N36      1.0000 0.04498  0.43606  0.20695  Biso   1.000  N
  C254     1.0000 0.13937  0.47070  0.23317  Biso   1.000  C
  C255     1.0000 0.07630  0.42266  0.23557  Biso   1.000  C
  C256     1.0000 0.00673  0.26876  0.19286  Biso   1.000  C
  H333     1.0000 0.83685  0.26607  0.18077  Biso   1.000  H
  H334     1.0000 0.78464  0.30981  0.19407  Biso   1.000  H
  H335     1.0000 0.70797  0.18946  0.18596  Biso   1.000  H
  C257     1.0000 0.09329  0.36788  0.20211  Biso   1.000  C
  H336     1.0000 0.14407  0.40201  0.23177  Biso   1.000  H
  H337     1.0000 0.11529  0.47348  0.24396  Biso   1.000  H
  H338     1.0000 0.21306  0.53677  0.23116  Biso   1.000  H
  H339     1.0000 0.15504  0.47415  0.23867  Biso   1.000  H
  H340     1.0000 0.06699  0.34841  0.23326  Biso   1.000  H
  H341     1.0000 0.02621  0.41634  0.24416  Biso   1.000  H
  H342     1.0000 0.97771  0.29641  0.18416  Biso   1.000  H
  C258     1.0000 0.05928  0.20395  0.18590  Biso   1.000  C
  C259     1.0000 0.19849  0.44558  0.19161  Biso   1.000  C
  H343     1.0000 0.11705  0.34124  0.21157  Biso   1.000  H
  H344     1.0000 0.07861  0.16830  0.19457  Biso   1.000  H
  H345     1.0000 0.00282  0.14285  0.17916  Biso   1.000  H
  C260     1.0000 0.16247  0.27458  0.17643  Biso   1.000  C
  C261     1.0000 0.24900  0.37099  0.18594  Biso   1.000  C
  H346     1.0000 0.17552  0.47424  0.18246  Biso   1.000  H
  H347     1.0000 0.25496  0.51064  0.19777  Biso   1.000  H
  H348     1.0000 0.14255  0.30408  0.16706  Biso   1.000  H
  H349     1.0000 0.19426  0.22780  0.17277  Biso   1.000  H
  H350     1.0000 0.31703  0.41684  0.17947  Biso   1.000  H
  H351     1.0000 0.27096  0.34209  0.19517  Biso   1.000  H
  C262     1.0000 0.28935  0.23581  0.68924  Biso   1.000  C
  C263     1.0000 0.29797  0.12970  0.68854  Biso   1.000  C
  H352     1.0000 0.20982  0.21601  0.68773  Biso   1.000  H
  H353     1.0000 0.33460  0.28747  0.68064  Biso   1.000  H
  C264     1.0000 0.33305  0.29590  0.70547  Biso   1.000  C
  C265     1.0000 0.23137  0.05065  0.70258  Biso   1.000  C
  H354     1.0000 0.37811  0.14985  0.68913  Biso   1.000  H
  H355     1.0000 0.26656  0.09009  0.67843  Biso   1.000  H
  C266     1.0000 0.26779  0.21896  0.71885  Biso   1.000  C
  N37      1.0000 0.31522  0.39367  0.70580  Biso   1.000  N
  H356     1.0000 0.41511  0.32194  0.70663  Biso   1.000  H
  C267     1.0000 0.27718  0.11133  0.71816  Biso   1.000  C
  H357     1.0000 0.15054  0.02722  0.70164  Biso   1.000  H
  H358     1.0000 0.23824  0.98222  0.70224  Biso   1.000  H
  N38      1.0000 0.31223  0.27500  0.73400  Biso   1.000  N
  H359     1.0000 0.18674  0.19772  0.71793  Biso   1.000  H
  C268     1.0000 0.39312  0.49210  0.70929  Biso   1.000  C
  H360     1.0000 0.35708  0.13173  0.71933  Biso   1.000  H
  H361     1.0000 0.23408  0.06060  0.72693  Biso   1.000  H
  C269     1.0000 0.25676  0.30551  0.74230  Biso   1.000  C
  C270     1.0000 0.36334  0.58464  0.70909  Biso   1.000  C
  C271     1.0000 0.51330  0.52489  0.71437  Biso   1.000  C
  C272     1.0000 0.30218  0.34773  0.75888  Biso   1.000  C
  C273     1.0000 0.15160  0.30408  0.73807  Biso   1.000  C
  C274     1.0000 0.44542  0.69597  0.70906  Biso   1.000  C
  C275     1.0000 0.25053  0.55464  0.70906  Biso   1.000  C
  H362     1.0000 0.51127  0.46303  0.72043  Biso   1.000  H
  H363     1.0000 0.54464  0.59282  0.72094  Biso   1.000  H
  H364     1.0000 0.56048  0.53955  0.70503  Biso   1.000  H
  C276     1.0000 0.41364  0.40833  0.76145  Biso   1.000  C
  C277     1.0000 0.22836  0.33703  0.77024  Biso   1.000  C
  H365     1.0000 0.14246  0.35717  0.74483  Biso   1.000  H
  H366     1.0000 0.08742  0.22797  0.73964  Biso   1.000  H
  H367     1.0000 0.15485  0.32591  0.72703  Biso   1.000  H
  C278     1.0000 0.41535  0.77873  0.70909  Biso   1.000  C
  H368     1.0000 0.52267  0.71645  0.70904  Biso   1.000  H
  H369     1.0000 0.19379  0.47735  0.70904  Biso   1.000  H
  C279     1.0000 0.22125  0.63664  0.70909  Biso   1.000  C
  C280     1.0000 0.45807  0.45923  0.77619  Biso   1.000  C
  H370     1.0000 0.46401  0.41726  0.75313  Biso   1.000  H
  H371     1.0000 0.14979  0.29666  0.76803  Biso   1.000  H
  C281     1.0000 0.26691  0.38566  0.78552  Biso   1.000  C
  C282     1.0000 0.30409  0.74949  0.70906  Biso   1.000  C
  C283     1.0000 0.50788  0.90102  0.70929  Biso   1.000  C
  C284     1.0000 0.09897  0.60681  0.70929  Biso   1.000  C
  C285     1.0000 0.38163  0.44971  0.78741  Biso   1.000  C
  C286     1.0000 0.58025  0.53121  0.77903  Biso   1.000  C
  C287     1.0000 0.18091  0.36897  0.79766  Biso   1.000  C
  H372     1.0000 0.28359  0.80629  0.70904  Biso   1.000  H
  N39      1.0000 0.60640  0.92159  0.70580  Biso   1.000  N
  C288     1.0000 0.47516  0.98842  0.71437  Biso   1.000  C
  N40      1.0000 0.07850  0.68485  0.70580  Biso   1.000  N
  C289     1.0000 0.01155  0.48671  0.71437  Biso   1.000  C
  H373     1.0000 0.40965  0.48983  0.79703  Biso   1.000  H
  N41      1.0000 0.60886  0.56391  0.79305  Biso   1.000  N
  C290     1.0000 0.66866  0.52935  0.76683  Biso   1.000  C
  C291     1.0000 0.65366  0.57731  0.76443  Biso   1.000  C
  N42      1.0000 0.08533  0.28292  0.79667  Biso   1.000  N
  C292     1.0000 0.21594  0.45932  0.81035  Biso   1.000  C
  C293     1.0000 0.70406  0.03705  0.70547  Biso   1.000  C
  H374     1.0000 0.40717  0.95184  0.72094  Biso   1.000  H
  H375     1.0000 0.53693  0.04817  0.72043  Biso   1.000  H
  H376     1.0000 0.46051  0.02087  0.70503  Biso   1.000  H
  C294     1.0000 0.96286  0.66698  0.70547  Biso   1.000  C
  H377     1.0000 0.04820  0.45536  0.72094  Biso   1.000  H
  H378     1.0000 0.95176  0.48873  0.72043  Biso   1.000  H
  H379     1.0000 0.97904  0.43951  0.70503  Biso   1.000  H
  C295     1.0000 0.72540  0.63217  0.79789  Biso   1.000  C
  H380     1.0000 0.74205  0.59804  0.76823  Biso   1.000  H
  H381     1.0000 0.64180  0.52657  0.75604  Biso   1.000  H
  H382     1.0000 0.67628  0.46328  0.76884  Biso   1.000  H
  H383     1.0000 0.68083  0.52581  0.76133  Biso   1.000  H
  H384     1.0000 0.71857  0.65164  0.76674  Biso   1.000  H
  H385     1.0000 0.60989  0.58363  0.75584  Biso   1.000  H
  C296     1.0000 0.99328  0.26202  0.80714  Biso   1.000  C
  H386     1.0000 0.16316  0.42923  0.81923  Biso   1.000  H
  H387     1.0000 0.21535  0.52514  0.80593  Biso   1.000  H
  H388     1.0000 0.29209  0.48157  0.81404  Biso   1.000  H
  C297     1.0000 0.78108  0.04876  0.71885  Biso   1.000  C
  C298     1.0000 0.76417  0.05348  0.68924  Biso   1.000  C
  H389     1.0000 0.67807  0.09309  0.70663  Biso   1.000  H
  C299     1.0000 0.95117  0.73221  0.71885  Biso   1.000  C
  C300     1.0000 0.94644  0.71064  0.68924  Biso   1.000  C
  H390     1.0000 0.90690  0.58498  0.70663  Biso   1.000  H
  C301     1.0000 0.73802  0.73129  0.80714  Biso   1.000  C
  C302     1.0000 0.75289  0.55447  0.80839  Biso   1.000  C
  H391     1.0000 0.77575  0.65872  0.78843  Biso   1.000  H
  H392     1.0000 0.02237  0.31874  0.81584  Biso   1.000  H
  C303     1.0000 0.94076  0.14471  0.81410  Biso   1.000  C
  C304     1.0000 0.90676  0.27466  0.79789  Biso   1.000  C
  H393     1.0000 0.80233  0.98909  0.71793  Biso   1.000  H
  N43      1.0000 0.72497  0.03713  0.73400  Biso   1.000  N
  C305     1.0000 0.88861  0.16574  0.71816  Biso   1.000  C
  H394     1.0000 0.78401  0.99390  0.68773  Biso   1.000  H
  C306     1.0000 0.87028  0.16819  0.68854  Biso   1.000  C
  H395     1.0000 0.71265  0.04708  0.68064  Biso   1.000  H
  H396     1.0000 0.01098  0.81329  0.71793  Biso   1.000  H
  N44      1.0000 0.96272  0.68771  0.73400  Biso   1.000  N
  C307     1.0000 0.83417  0.72286  0.71816  Biso   1.000  C
  H397     1.0000 0.00618  0.79011  0.68773  Biso   1.000  H
  C308     1.0000 0.83179  0.70204  0.68854  Biso   1.000  C
  H398     1.0000 0.95291  0.66546  0.68064  Biso   1.000  H
  N45      1.0000 0.71710  0.80242  0.79667  Biso   1.000  N
  H399     1.0000 0.68129  0.70364  0.81584  Biso   1.000  H
  C309     1.0000 0.85527  0.79601  0.81410  Biso   1.000  C
  C310     1.0000 0.87799  0.62906  0.81406  Biso   1.000  C
  H400     1.0000 0.70130  0.52573  0.81754  Biso   1.000  H
  H401     1.0000 0.74426  0.48932  0.80223  Biso   1.000  H
  H402     1.0000 0.92146  0.08976  0.80543  Biso   1.000  H
  H403     1.0000 0.99719  0.14007  0.82084  Biso   1.000  H
  C311     1.0000 0.83756  0.11217  0.82357  Biso   1.000  C
  N46      1.0000 0.95508  0.39114  0.79305  Biso   1.000  N
  C312     1.0000 0.80153  0.24710  0.80839  Biso   1.000  C
  H404     1.0000 0.88295  0.22427  0.78843  Biso   1.000  H
  C313     1.0000 0.69452  0.95125  0.74230  Biso   1.000  C
  H405     1.0000 0.86822  0.22524  0.71933  Biso   1.000  H
  H406     1.0000 0.93938  0.17341  0.72693  Biso   1.000  H
  C314     1.0000 0.94943  0.18066  0.70258  Biso   1.000  C
  H407     1.0000 0.85021  0.22819  0.68913  Biso   1.000  H
  H408     1.0000 0.90984  0.17636  0.67843  Biso   1.000  H
  C315     1.0000 0.04880  0.74325  0.74230  Biso   1.000  C
  H409     1.0000 0.77466  0.64296  0.71933  Biso   1.000  H
  H410     1.0000 0.82658  0.76592  0.72693  Biso   1.000  H
  C316     1.0000 0.81924  0.76862  0.70258  Biso   1.000  C
  H411     1.0000 0.77176  0.62198  0.68913  Biso   1.000  H
  H412     1.0000 0.82357  0.73348  0.67843  Biso   1.000  H
  C317     1.0000 0.63106  0.81194  0.79766  Biso   1.000  C
  H413     1.0000 0.91029  0.83175  0.80543  Biso   1.000  H
  H414     1.0000 0.85998  0.85711  0.82084  Biso   1.000  H
  C318     1.0000 0.88788  0.72547  0.82357  Biso   1.000  C
  H415     1.0000 0.90020  0.58312  0.82053  Biso   1.000  H
  H416     1.0000 0.92886  0.65796  0.80483  Biso   1.000  H
  H417     1.0000 0.85744  0.16156  0.83294  Biso   1.000  H
  H418     1.0000 0.80576  0.03354  0.82723  Biso   1.000  H
  C319     1.0000 0.75104  0.12204  0.81406  Biso   1.000  C
  C320     1.0000 0.95097  0.41971  0.77903  Biso   1.000  C
  H419     1.0000 0.82444  0.29877  0.81754  Biso   1.000  H
  H420     1.0000 0.74503  0.25570  0.80223  Biso   1.000  H
  C321     1.0000 0.65225  0.95445  0.75888  Biso   1.000  C
  C322     1.0000 0.69596  0.84759  0.73807  Biso   1.000  C
  H421     1.0000 0.97277  0.12326  0.70164  Biso   1.000  H
  H422     1.0000 0.01780  0.25609  0.70224  Biso   1.000  H
  C323     1.0000 0.04558  0.69783  0.75888  Biso   1.000  C
  C324     1.0000 0.15248  0.84843  0.73807  Biso   1.000  C
  H423     1.0000 0.87666  0.84944  0.70164  Biso   1.000  H
  H424     1.0000 0.74382  0.76171  0.70224  Biso   1.000  H
  C325     1.0000 0.61439  0.88122  0.78552  Biso   1.000  C
  C326     1.0000 0.54065  0.75665  0.81035  Biso   1.000  C
  H425     1.0000 0.83846  0.69597  0.83294  Biso   1.000  H
  H426     1.0000 0.96652  0.77224  0.82723  Biso   1.000  H
  H427     1.0000 0.68295  0.09987  0.82053  Biso   1.000  H
  H428     1.0000 0.72909  0.07113  0.80483  Biso   1.000  H
  C327     1.0000 0.00112  0.54191  0.77619  Biso   1.000  C
  C328     1.0000 0.86064  0.33130  0.76683  Biso   1.000  C
  C329     1.0000 0.92368  0.34630  0.76443  Biso   1.000  C
  C330     1.0000 0.66295  0.89133  0.77024  Biso   1.000  C
  C331     1.0000 0.59168  0.00527  0.76145  Biso   1.000  C
  H429     1.0000 0.64290  0.78539  0.74483  Biso   1.000  H
  H430     1.0000 0.77212  0.85947  0.73964  Biso   1.000  H
  H431     1.0000 0.67410  0.82896  0.72703  Biso   1.000  H
  C332     1.0000 0.10869  0.77165  0.77024  Biso   1.000  C
  C333     1.0000 0.99464  0.58633  0.76145  Biso   1.000  C
  H432     1.0000 0.21470  0.85753  0.74483  Biso   1.000  H
  H433     1.0000 0.14058  0.91265  0.73964  Biso   1.000  H
  H434     1.0000 0.17106  0.84515  0.72703  Biso   1.000  H
  C334     1.0000 0.55028  0.93195  0.78741  Biso   1.000  C
  H435     1.0000 0.57077  0.73398  0.81923  Biso   1.000  H
  H436     1.0000 0.47489  0.69024  0.80593  Biso   1.000  H
  H437     1.0000 0.51850  0.81059  0.81404  Biso   1.000  H
  C335     1.0000 0.06810  0.61835  0.78741  Biso   1.000  C
  H438     1.0000 0.85602  0.25798  0.76823  Biso   1.000  H
  H439     1.0000 0.88478  0.35827  0.75604  Biso   1.000  H
  H440     1.0000 0.78692  0.32371  0.76884  Biso   1.000  H
  H441     1.0000 0.84501  0.31916  0.76133  Biso   1.000  H
  H442     1.0000 0.93305  0.28141  0.76674  Biso   1.000  H
  H443     1.0000 0.97377  0.39013  0.75584  Biso   1.000  H
  H444     1.0000 0.70342  0.85315  0.76803  Biso   1.000  H
  C336     1.0000 0.54082  0.99887  0.77619  Biso   1.000  C
  H445     1.0000 0.58281  0.04666  0.75313  Biso   1.000  H
  H446     1.0000 0.14692  0.85029  0.76803  Biso   1.000  H
  C337     1.0000 0.11878  0.73314  0.78552  Biso   1.000  C
  H447     1.0000 0.95328  0.53601  0.75313  Biso   1.000  H
  H448     1.0000 0.51012  0.91982  0.79703  Biso   1.000  H
  H449     1.0000 0.08016  0.59037  0.79703  Biso   1.000  H
  C338     1.0000 0.46878  0.04893  0.77903  Biso   1.000  C
  C339     1.0000 0.18808  0.81919  0.79766  Biso   1.000  C
  N47      1.0000 0.43610  0.04489  0.79305  Biso   1.000  N
  C340     1.0000 0.47074  0.13928  0.76683  Biso   1.000  C
  C341     1.0000 0.42262  0.07632  0.76443  Biso   1.000  C
  N48      1.0000 0.19758  0.91468  0.79667  Biso   1.000  N
  C342     1.0000 0.24335  0.78404  0.81035  Biso   1.000  C
  C343     1.0000 0.36784  0.09318  0.79789  Biso   1.000  C
  H450     1.0000 0.40201  0.14400  0.76823  Biso   1.000  H
  H451     1.0000 0.47343  0.11517  0.75604  Biso   1.000  H
  H452     1.0000 0.53669  0.21294  0.76884  Biso   1.000  H
  H453     1.0000 0.47424  0.15504  0.76133  Biso   1.000  H
  H454     1.0000 0.34842  0.06688  0.76674  Biso   1.000  H
  H455     1.0000 0.41638  0.02618  0.75584  Biso   1.000  H
  C344     1.0000 0.26885  0.00671  0.80714  Biso   1.000  C
  H456     1.0000 0.26612  0.83689  0.81923  Biso   1.000  H
  H457     1.0000 0.30977  0.78463  0.80593  Biso   1.000  H
  H458     1.0000 0.18946  0.70794  0.81404  Biso   1.000  H
  C345     1.0000 0.44561  0.19836  0.80839  Biso   1.000  C
  H459     1.0000 0.34119  0.11694  0.78843  Biso   1.000  H
  H460     1.0000 0.29635  0.97763  0.81584  Biso   1.000  H
  C346     1.0000 0.20394  0.05921  0.81410  Biso   1.000  C
  C347     1.0000 0.37093  0.24884  0.81406  Biso   1.000  C
  H461     1.0000 0.47429  0.17543  0.81754  Biso   1.000  H
  H462     1.0000 0.51075  0.25491  0.80223  Biso   1.000  H
  H463     1.0000 0.16833  0.07851  0.80543  Biso   1.000  H
  H464     1.0000 0.14286  0.00275  0.82084  Biso   1.000  H
  C348     1.0000 0.27449  0.16237  0.82357  Biso   1.000  C
  H465     1.0000 0.41681  0.31694  0.82053  Biso   1.000  H
  H466     1.0000 0.34208  0.27084  0.80483  Biso   1.000  H
  H467     1.0000 0.30411  0.14248  0.83294  Biso   1.000  H
  H468     1.0000 0.22768  0.19414  0.82723  Biso   1.000  H
  C349     1.0000 0.52195  0.12937  0.14743  Biso   1.000  C
  C350     1.0000 0.54467  0.96241  0.14740  Biso   1.000  C
  C351     1.0000 0.54474  0.96241  0.14740  Biso   1.000  C
  H469     1.0000 0.50510  0.02924  0.16626  Biso   1.000  H
  H470     1.0000 0.50517  0.02924  0.16626  Biso   1.000  H
  H471     1.0000 0.63315  0.10552  0.16057  Biso   1.000  H
  H472     1.0000 0.63308  0.10552  0.16057  Biso   1.000  H
  C352     1.0000 0.40466  0.06456  0.14048  Biso   1.000  C
  H473     1.0000 0.57697  0.16510  0.13877  Biso   1.000  H
  H474     1.0000 0.57693  0.16502  0.13877  Biso   1.000  H
  C353     1.0000 0.55459  0.05874  0.15691  Biso   1.000  C
  C354     1.0000 0.40459  0.06456  0.14048  Biso   1.000  C
  H475     1.0000 0.52659  0.19047  0.15417  Biso   1.000  H
  C355     1.0000 0.41950  0.88783  0.14173  Biso   1.000  C
  C356     1.0000 0.41964  0.88783  0.14173  Biso   1.000  C
  H476     1.0000 0.56685  0.91656  0.15387  Biso   1.000  H
  H477     1.0000 0.59554  0.99132  0.13817  Biso   1.000  H
  H478     1.0000 0.56681  0.91648  0.15387  Biso   1.000  H
  H479     1.0000 0.59562  0.99132  0.13817  Biso   1.000  H
  C357     1.0000 0.39201  0.96553  0.13123  Biso   1.000  C
  C358     1.0000 0.39215  0.96553  0.13123  Biso   1.000  C
  N49      1.0000 0.38378  0.13577  0.13000  Biso   1.000  N
  H480     1.0000 0.34796  0.03700  0.14916  Biso   1.000  H
  H481     1.0000 0.34792  0.03691  0.14916  Biso   1.000  H
  N50      1.0000 0.38370  0.13577  0.13000  Biso   1.000  N
  H482     1.0000 0.41098  0.82276  0.13557  Biso   1.000  H
  H483     1.0000 0.36791  0.85909  0.15086  Biso   1.000  H
  H484     1.0000 0.41101  0.82268  0.13557  Biso   1.000  H
  N51      1.0000 0.27558  0.89735  0.12639  Biso   1.000  N
  H485     1.0000 0.44240  0.99216  0.12177  Biso   1.000  H
  H486     1.0000 0.44254  0.99216  0.12177  Biso   1.000  H
  C359     1.0000 0.29770  0.14521  0.13098  Biso   1.000  C
  C360     1.0000 0.24697  0.86465  0.11237  Biso   1.000  C
  C361     1.0000 0.20740  0.09001  0.14367  Biso   1.000  C
  C362     1.0000 0.28100  0.21457  0.11886  Biso   1.000  C
  C363     1.0000 0.20729  0.08993  0.14367  Biso   1.000  C
  C364     1.0000 0.33534  0.86271  0.10017  Biso   1.000  C
  C365     1.0000 0.12482  0.79259  0.10953  Biso   1.000  C
  C366     1.0000 0.32031  0.91075  0.09777  Biso   1.000  C
  C367     1.0000 0.21695  0.26531  0.12073  Biso   1.000  C
  C368     1.0000 0.21691  0.26522  0.12073  Biso   1.000  C
  C369     1.0000 0.32970  0.22469  0.10356  Biso   1.000  C
  C370     1.0000 0.32958  0.22460  0.10356  Biso   1.000  C
  H487     1.0000 0.18514  0.14386  0.14736  Biso   1.000  H
  H488     1.0000 0.23741  0.06725  0.15257  Biso   1.000  H
  H489     1.0000 0.14157  0.02360  0.13927  Biso   1.000  H
  H490     1.0000 0.23748  0.06725  0.15257  Biso   1.000  H
  H491     1.0000 0.14153  0.02351  0.13927  Biso   1.000  H
  H492     1.0000 0.14146  0.02351  0.13927  Biso   1.000  H
  H493     1.0000 0.30848  0.85993  0.08936  Biso   1.000  H
  H494     1.0000 0.40870  0.93148  0.10157  Biso   1.000  H
  H495     1.0000 0.34288  0.79664  0.10216  Biso   1.000  H
  H496     1.0000 0.40880  0.93140  0.10157  Biso   1.000  H
  H497     1.0000 0.34303  0.79664  0.10216  Biso   1.000  H
  H498     1.0000 0.40885  0.93148  0.10157  Biso   1.000  H
  C371     1.0000 0.04828  0.78315  0.12073  Biso   1.000  C
  C372     1.0000 0.04835  0.78315  0.12073  Biso   1.000  C
  C373     1.0000 0.08036  0.74177  0.09477  Biso   1.000  C
  H499     1.0000 0.34755  0.85925  0.09467  Biso   1.000  H
  H500     1.0000 0.38524  0.98500  0.10006  Biso   1.000  H
  H501     1.0000 0.27650  0.91699  0.08916  Biso   1.000  H
  H502     1.0000 0.37005  0.18642  0.10137  Biso   1.000  H
  C374     1.0000 0.31900  0.28781  0.09220  Biso   1.000  C
  C375     1.0000 0.31889  0.28773  0.09220  Biso   1.000  C
  H503     1.0000 0.36998  0.18642  0.10137  Biso   1.000  H
  C376     1.0000 0.20745  0.33214  0.10953  Biso   1.000  C
  H504     1.0000 0.17680  0.25317  0.13037  Biso   1.000  H
  H505     1.0000 0.17687  0.25317  0.13037  Biso   1.000  H
  C377     1.0000 0.20738  0.33214  0.10953  Biso   1.000  C
  C378     1.0000 0.96886  0.68109  0.09220  Biso   1.000  C
  H506     1.0000 0.13062  0.75062  0.08647  Biso   1.000  H
  C379     1.0000 0.93366  0.71902  0.11886  Biso   1.000  C
  C380     1.0000 0.93352  0.71902  0.11886  Biso   1.000  C
  H507     1.0000 0.07629  0.82327  0.13037  Biso   1.000  H
  H508     1.0000 0.07637  0.82327  0.13037  Biso   1.000  H
  C381     1.0000 0.25840  0.33872  0.09477  Biso   1.000  C
  C382     1.0000 0.25829  0.33863  0.09477  Biso   1.000  C
  C383     1.0000 0.36108  0.28452  0.07564  Biso   1.000  C
  C384     1.0000 0.13542  0.38237  0.11237  Biso   1.000  C
  C385     1.0000 0.13550  0.38237  0.11237  Biso   1.000  C
  C386     1.0000 0.92348  0.63895  0.07564  Biso   1.000  C
  C387     1.0000 0.89509  0.67047  0.10356  Biso   1.000  C
  C388     1.0000 0.89512  0.67039  0.10356  Biso   1.000  C
  C389     1.0000 0.84759  0.70233  0.13098  Biso   1.000  C
  C390     1.0000 0.84751  0.70233  0.13098  Biso   1.000  C
  H509     1.0000 0.24942  0.38001  0.08647  Biso   1.000  H
  N52      1.0000 0.39169  0.37057  0.06734  Biso   1.000  N
  C391     1.0000 0.36267  0.18086  0.07141  Biso   1.000  C
  C392     1.0000 0.13739  0.47272  0.10017  Biso   1.000  C
  N53      1.0000 0.10278  0.37824  0.12639  Biso   1.000  N
  C393     1.0000 0.13727  0.47263  0.10017  Biso   1.000  C
  C394     1.0000 0.08930  0.40968  0.09777  Biso   1.000  C
  N54      1.0000 0.97895  0.60844  0.06734  Biso   1.000  N
  C395     1.0000 0.81835  0.63743  0.07141  Biso   1.000  C
  C396     1.0000 0.81828  0.63743  0.07141  Biso   1.000  C
  H510     1.0000 0.81654  0.63002  0.10137  Biso   1.000  H
  H511     1.0000 0.81640  0.63002  0.10137  Biso   1.000  H
  N55      1.0000 0.75213  0.61636  0.13000  Biso   1.000  N
  C397     1.0000 0.88266  0.79276  0.14367  Biso   1.000  C
  N56      1.0000 0.75209  0.61628  0.13000  Biso   1.000  N
  C398     1.0000 0.44780  0.38220  0.05219  Biso   1.000  C
  C399     1.0000 0.44768  0.38212  0.05219  Biso   1.000  C
  H512     1.0000 0.30953  0.11866  0.07817  Biso   1.000  H
  H513     1.0000 0.34073  0.16224  0.06037  Biso   1.000  H
  H514     1.0000 0.43868  0.19275  0.07296  Biso   1.000  H
  C400     1.0000 0.03456  0.42662  0.13123  Biso   1.000  C
  C401     1.0000 0.03452  0.42653  0.13123  Biso   1.000  C
  H515     1.0000 0.06862  0.47735  0.10157  Biso   1.000  H
  H516     1.0000 0.14015  0.44861  0.08936  Biso   1.000  H
  H517     1.0000 0.20341  0.54638  0.10216  Biso   1.000  H
  H518     1.0000 0.14011  0.44853  0.08936  Biso   1.000  H
  H519     1.0000 0.20349  0.54638  0.10216  Biso   1.000  H
  H520     1.0000 0.14085  0.48839  0.09467  Biso   1.000  H
  H521     1.0000 0.01502  0.40024  0.10006  Biso   1.000  H
  H522     1.0000 0.08303  0.35962  0.08916  Biso   1.000  H
  C402     1.0000 0.93454  0.55231  0.05219  Biso   1.000  C
  C403     1.0000 0.93439  0.55231  0.05219  Biso   1.000  C
  H523     1.0000 0.80921  0.69053  0.07817  Biso   1.000  H
  H524     1.0000 0.75417  0.56133  0.07296  Biso   1.000  H
  H525     1.0000 0.82157  0.65935  0.06037  Biso   1.000  H
  H526     1.0000 0.75410  0.56133  0.07296  Biso   1.000  H
  H527     1.0000 0.82150  0.65935  0.06037  Biso   1.000  H
  C404     1.0000 0.66000  0.59546  0.14048  Biso   1.000  C
  C405     1.0000 0.65996  0.59538  0.14048  Biso   1.000  C
  H528     1.0000 0.82988  0.76267  0.15257  Biso   1.000  H
  H529     1.0000 0.88214  0.85858  0.13927  Biso   1.000  H
  H530     1.0000 0.95885  0.81492  0.14736  Biso   1.000  H
  H531     1.0000 0.82976  0.76259  0.15257  Biso   1.000  H
  H532     1.0000 0.88210  0.85850  0.13927  Biso   1.000  H
  H533     1.0000 0.95877  0.81492  0.14736  Biso   1.000  H
  H534     1.0000 0.82981  0.76267  0.15257  Biso   1.000  H
  H535     1.0000 0.82984  0.76259  0.15257  Biso   1.000  H
  C406     1.0000 0.55534  0.49918  0.05148  Biso   1.000  C
  C407     1.0000 0.55541  0.49918  0.05148  Biso   1.000  C
  H536     1.0000 0.46890  0.32237  0.05127  Biso   1.000  H
  C408     1.0000 0.37071  0.37049  0.03880  Biso   1.000  C
  C409     1.0000 0.93545  0.34006  0.14048  Biso   1.000  C
  H537     1.0000 0.00798  0.45038  0.12177  Biso   1.000  H
  C410     1.0000 0.11215  0.53171  0.14173  Biso   1.000  C
  H538     1.0000 0.85346  0.53116  0.05127  Biso   1.000  H
  C411     1.0000 0.94390  0.44477  0.05148  Biso   1.000  C
  C412     1.0000 0.99984  0.62934  0.03880  Biso   1.000  C
  H539     1.0000 0.85341  0.53107  0.05127  Biso   1.000  H
  C413     1.0000 0.94379  0.44469  0.05148  Biso   1.000  C
  C414     1.0000 0.99969  0.62934  0.03880  Biso   1.000  C
  C415     1.0000 0.94383  0.44477  0.05148  Biso   1.000  C
  H540     1.0000 0.68909  0.65218  0.14916  Biso   1.000  H
  C416     1.0000 0.57344  0.60802  0.13123  Biso   1.000  C
  H541     1.0000 0.68905  0.65210  0.14916  Biso   1.000  H
  C417     1.0000 0.60755  0.47815  0.14743  Biso   1.000  C
  C418     1.0000 0.60740  0.47815  0.14743  Biso   1.000  C
  H542     1.0000 0.53494  0.55868  0.05267  Biso   1.000  H
  H543     1.0000 0.60599  0.50677  0.06027  Biso   1.000  H
  C419     1.0000 0.61596  0.51401  0.03590  Biso   1.000  C
  N57      1.0000 0.27304  0.25486  0.03913  Biso   1.000  N
  C420     1.0000 0.43085  0.38684  0.02258  Biso   1.000  C
  H544     1.0000 0.34475  0.42645  0.03997  Biso   1.000  H
  C421     1.0000 0.43077  0.38684  0.02258  Biso   1.000  C
  H545     1.0000 0.34468  0.42645  0.03997  Biso   1.000  H
  N58      1.0000 0.86421  0.24795  0.13000  Biso   1.000  N
  H546     1.0000 0.96310  0.31099  0.14916  Biso   1.000  H
  C422     1.0000 0.87069  0.39257  0.14743  Biso   1.000  C
  N59      1.0000 0.86428  0.24795  0.13000  Biso   1.000  N
  H547     1.0000 0.14094  0.50887  0.15086  Biso   1.000  H
  C423     1.0000 0.03766  0.58228  0.14740  Biso   1.000  C
  C424     1.0000 0.03758  0.58228  0.14740  Biso   1.000  C
  H548     1.0000 0.17728  0.58826  0.13557  Biso   1.000  H
  H549     1.0000 0.90080  0.39404  0.06027  Biso   1.000  H
  C425     1.0000 0.89812  0.38401  0.03590  Biso   1.000  C
  C426     1.0000 0.89797  0.38401  0.03590  Biso   1.000  C
  H550     1.0000 0.02380  0.46517  0.05267  Biso   1.000  H
  H551     1.0000 0.02376  0.46508  0.05267  Biso   1.000  H
  C427     1.0000 0.95607  0.56925  0.02258  Biso   1.000  C
  N60      1.0000 0.98197  0.72702  0.03913  Biso   1.000  N
  N61      1.0000 0.98182  0.72702  0.03913  Biso   1.000  N
  H552     1.0000 0.08179  0.65530  0.03997  Biso   1.000  H
  C428     1.0000 0.46825  0.58055  0.14173  Biso   1.000  C
  H553     1.0000 0.54970  0.55762  0.12177  Biso   1.000  H
  N62      1.0000 0.62168  0.72449  0.12639  Biso   1.000  N
  N63      1.0000 0.62172  0.72458  0.12639  Biso   1.000  N
  H554     1.0000 0.58821  0.42311  0.13877  Biso   1.000  H
  H555     1.0000 0.66387  0.47343  0.15417  Biso   1.000  H
  C429     1.0000 0.50424  0.44553  0.15691  Biso   1.000  C
  H556     1.0000 0.66380  0.47343  0.15417  Biso   1.000  H
  H557     1.0000 0.68455  0.58944  0.03556  Biso   1.000  H
  H558     1.0000 0.63945  0.45662  0.03496  Biso   1.000  H
  H559     1.0000 0.63938  0.45662  0.03496  Biso   1.000  H
  H560     1.0000 0.68447  0.58944  0.03556  Biso   1.000  H
  C430     1.0000 0.53688  0.50154  0.02188  Biso   1.000  C
  C431     1.0000 0.17456  0.23438  0.04263  Biso   1.000  C
  C432     1.0000 0.17448  0.23438  0.04263  Biso   1.000  C
  H561     1.0000 0.45064  0.32717  0.02107  Biso   1.000  H
  H562     1.0000 0.37918  0.38043  0.01396  Biso   1.000  H
  C433     1.0000 0.85471  0.15246  0.13098  Biso   1.000  C
  C434     1.0000 0.85479  0.15246  0.13098  Biso   1.000  C
  H563     1.0000 0.83494  0.41187  0.13877  Biso   1.000  H
  H564     1.0000 0.80951  0.33619  0.15417  Biso   1.000  H
  C435     1.0000 0.94121  0.49581  0.15691  Biso   1.000  C
  H565     1.0000 0.80958  0.33619  0.15417  Biso   1.000  H
  C436     1.0000 0.94124  0.49573  0.15691  Biso   1.000  C
  C437     1.0000 0.94129  0.49581  0.15691  Biso   1.000  C
  H566     1.0000 0.08353  0.65038  0.15387  Biso   1.000  H
  H567     1.0000 0.00873  0.60428  0.13817  Biso   1.000  H
  C438     1.0000 0.96477  0.46315  0.02188  Biso   1.000  C
  H568     1.0000 0.81729  0.36058  0.03496  Biso   1.000  H
  C439     1.0000 0.96462  0.46315  0.02188  Biso   1.000  C
  H569     1.0000 0.90492  0.31557  0.03556  Biso   1.000  H
  H570     1.0000 0.90503  0.31549  0.03556  Biso   1.000  H
  H571     1.0000 0.00128  0.62083  0.01396  Biso   1.000  H
  H572     1.0000 0.87654  0.54945  0.02107  Biso   1.000  H
  C440     1.0000 0.05977  0.82554  0.04263  Biso   1.000  C
  C441     1.0000 0.05984  0.82554  0.04263  Biso   1.000  C
  H573     1.0000 0.41175  0.58914  0.13557  Biso   1.000  H
  C442     1.0000 0.41772  0.45539  0.14740  Biso   1.000  C
  H574     1.0000 0.49112  0.63212  0.15086  Biso   1.000  H
  C443     1.0000 0.61776  0.75315  0.11237  Biso   1.000  C
  C444     1.0000 0.61769  0.75315  0.11237  Biso   1.000  C
  H575     1.0000 0.52419  0.49492  0.16626  Biso   1.000  H
  H576     1.0000 0.47252  0.36690  0.16057  Biso   1.000  H
  H577     1.0000 0.47237  0.36690  0.16057  Biso   1.000  H
  H578     1.0000 0.57656  0.50980  0.01177  Biso   1.000  H
  H579     1.0000 0.51689  0.56155  0.02247  Biso   1.000  H
  H580     1.0000 0.57651  0.50972  0.01177  Biso   1.000  H
  C445     1.0000 0.14184  0.32178  0.04771  Biso   1.000  C
  C446     1.0000 0.08203  0.11209  0.04243  Biso   1.000  C
  C447     1.0000 0.08206  0.11201  0.04243  Biso   1.000  C
  C448     1.0000 0.08210  0.11209  0.04243  Biso   1.000  C
  C449     1.0000 0.08199  0.11201  0.04243  Biso   1.000  C
  C450     1.0000 0.78546  0.06650  0.11886  Biso   1.000  C
  C451     1.0000 0.91006  0.11732  0.14367  Biso   1.000  C
  C452     1.0000 0.78541  0.06641  0.11886  Biso   1.000  C
  C453     1.0000 0.91010  0.11740  0.14367  Biso   1.000  C
  H581     1.0000 0.89440  0.52758  0.16057  Biso   1.000  H
  H582     1.0000 0.89448  0.52758  0.16057  Biso   1.000  H
  H583     1.0000 0.97078  0.47584  0.16626  Biso   1.000  H
  H584     1.0000 0.93328  0.42353  0.01177  Biso   1.000  H
  H585     1.0000 0.93321  0.42353  0.01177  Biso   1.000  H
  H586     1.0000 0.04479  0.48320  0.02247  Biso   1.000  H
  C454     1.0000 0.03006  0.91808  0.04243  Biso   1.000  C
  C455     1.0000 0.17998  0.85824  0.04771  Biso   1.000  C
  C456     1.0000 0.03009  0.91800  0.04243  Biso   1.000  C
  C457     1.0000 0.03013  0.91808  0.04243  Biso   1.000  C
  C458     1.0000 0.18005  0.85824  0.04771  Biso   1.000  C
  H587     1.0000 0.34971  0.43323  0.15387  Biso   1.000  H
  H588     1.0000 0.39577  0.40449  0.13817  Biso   1.000  H
  C459     1.0000 0.66791  0.87535  0.10953  Biso   1.000  C
  C460     1.0000 0.52743  0.66474  0.10017  Biso   1.000  C
  C461     1.0000 0.52736  0.66474  0.10017  Biso   1.000  C
  C462     1.0000 0.59040  0.67974  0.09777  Biso   1.000  C
  H589     1.0000 0.20361  0.38153  0.05377  Biso   1.000  H
  H590     1.0000 0.07380  0.28511  0.05426  Biso   1.000  H
  H591     1.0000 0.12712  0.35422  0.03837  Biso   1.000  H
  C463     1.0000 0.97073  0.08276  0.04238  Biso   1.000  C
  C464     1.0000 0.97080  0.08276  0.04238  Biso   1.000  C
  C465     1.0000 0.11199  0.02924  0.04238  Biso   1.000  C
  H592     1.0000 0.93275  0.17016  0.15257  Biso   1.000  H
  H593     1.0000 0.85613  0.04130  0.14736  Biso   1.000  H
  H594     1.0000 0.97640  0.11791  0.13927  Biso   1.000  H
  H595     1.0000 0.97648  0.11791  0.13927  Biso   1.000  H
  H596     1.0000 0.85617  0.04121  0.14736  Biso   1.000  H
  C466     1.0000 0.73470  0.95171  0.12073  Biso   1.000  C
  C467     1.0000 0.77533  0.10493  0.10356  Biso   1.000  C
  C468     1.0000 0.91728  0.88799  0.04238  Biso   1.000  C
  H597     1.0000 0.21136  0.92626  0.05426  Biso   1.000  H
  H598     1.0000 0.17799  0.79647  0.05377  Biso   1.000  H
  H599     1.0000 0.22716  0.87291  0.03837  Biso   1.000  H
  C469     1.0000 0.66137  0.91977  0.09477  Biso   1.000  C
  C470     1.0000 0.66132  0.91968  0.09477  Biso   1.000  C
  H600     1.0000 0.52269  0.59133  0.10157  Biso   1.000  H
  H601     1.0000 0.55153  0.69162  0.08936  Biso   1.000  H
  H602     1.0000 0.45371  0.65715  0.10216  Biso   1.000  H
  H603     1.0000 0.55138  0.69162  0.08936  Biso   1.000  H
  H604     1.0000 0.51161  0.65252  0.09467  Biso   1.000  H
  H605     1.0000 0.59977  0.61485  0.10006  Biso   1.000  H
  H606     1.0000 0.64052  0.72348  0.08916  Biso   1.000  H
  C471     1.0000 0.88804  0.97008  0.04243  Biso   1.000  C
  C472     1.0000 0.88800  0.97000  0.04243  Biso   1.000  C
  H607     1.0000 0.95030  0.13957  0.04236  Biso   1.000  H
  H608     1.0000 0.18934  0.04981  0.04236  Biso   1.000  H
  H609     1.0000 0.18930  0.04972  0.04236  Biso   1.000  H
  H610     1.0000 0.74684  0.92373  0.13037  Biso   1.000  H
  C473     1.0000 0.71226  0.03118  0.09220  Biso   1.000  C
  H611     1.0000 0.81355  0.18356  0.10137  Biso   1.000  H
  C474     1.0000 0.71221  0.03110  0.09220  Biso   1.000  C
  H612     1.0000 0.86047  0.81071  0.04236  Biso   1.000  H
  H613     1.0000 0.86039  0.81071  0.04236  Biso   1.000  H
  H614     1.0000 0.62008  0.86945  0.08647  Biso   1.000  H
  H615     1.0000 0.62000  0.86945  0.08647  Biso   1.000  H
  C475     1.0000 0.76576  0.94025  0.04263  Biso   1.000  C
  C476     1.0000 0.76569  0.94025  0.04263  Biso   1.000  C
  C477     1.0000 0.71548  0.07661  0.07564  Biso   1.000  C
  C478     1.0000 0.71544  0.07652  0.07564  Biso   1.000  C
  C479     1.0000 0.67834  0.82015  0.04771  Biso   1.000  C
  C480     1.0000 0.67827  0.82015  0.04771  Biso   1.000  C
  N64      1.0000 0.74518  0.01820  0.03913  Biso   1.000  N
  N65      1.0000 0.74514  0.01812  0.03913  Biso   1.000  N
  N66      1.0000 0.62939  0.02107  0.06734  Biso   1.000  N
  N67      1.0000 0.62947  0.02107  0.06734  Biso   1.000  N
  C481     1.0000 0.81912  0.18170  0.07141  Biso   1.000  C
  H616     1.0000 0.61855  0.82217  0.05377  Biso   1.000  H
  H617     1.0000 0.64584  0.77295  0.03837  Biso   1.000  H
  H618     1.0000 0.61836  0.82209  0.05377  Biso   1.000  H
  H619     1.0000 0.71488  0.78871  0.05426  Biso   1.000  H
  H620     1.0000 0.64569  0.77295  0.03837  Biso   1.000  H
  H621     1.0000 0.61841  0.82217  0.05377  Biso   1.000  H
  H622     1.0000 0.61851  0.82209  0.05377  Biso   1.000  H
  C482     1.0000 0.62950  0.00025  0.03880  Biso   1.000  C
  C483     1.0000 0.62957  0.00025  0.03880  Biso   1.000  C
  C484     1.0000 0.61785  0.06557  0.05219  Biso   1.000  C
  H623     1.0000 0.88137  0.19089  0.07817  Biso   1.000  H
  H624     1.0000 0.88133  0.19081  0.07817  Biso   1.000  H
  H625     1.0000 0.80722  0.24592  0.07296  Biso   1.000  H
  H626     1.0000 0.83769  0.17842  0.06037  Biso   1.000  H
  H627     1.0000 0.83777  0.17842  0.06037  Biso   1.000  H
  H628     1.0000 0.57365  0.91833  0.03997  Biso   1.000  H
  H629     1.0000 0.57350  0.91833  0.03997  Biso   1.000  H
  C485     1.0000 0.61312  0.04399  0.02258  Biso   1.000  C
  C486     1.0000 0.61315  0.04391  0.02258  Biso   1.000  C
  C487     1.0000 0.61319  0.04399  0.02258  Biso   1.000  C
  H630     1.0000 0.67762  0.14656  0.05127  Biso   1.000  H
  C488     1.0000 0.50080  0.05613  0.05148  Biso   1.000  C
  H631     1.0000 0.67769  0.14656  0.05127  Biso   1.000  H
  C489     1.0000 0.50088  0.05613  0.05148  Biso   1.000  C
  H632     1.0000 0.61958  0.99882  0.01396  Biso   1.000  H
  H633     1.0000 0.61951  0.99882  0.01396  Biso   1.000  H
  C490     1.0000 0.49847  0.03540  0.02188  Biso   1.000  C
  H634     1.0000 0.67286  0.12347  0.02107  Biso   1.000  H
  C491     1.0000 0.49842  0.03531  0.02188  Biso   1.000  C
  H635     1.0000 0.44134  0.97632  0.05267  Biso   1.000  H
  H636     1.0000 0.49326  0.09928  0.06027  Biso   1.000  H
  C492     1.0000 0.48592  0.10198  0.03590  Biso   1.000  C
  C493     1.0000 0.48599  0.10198  0.03590  Biso   1.000  C
  H637     1.0000 0.43844  0.95533  0.02247  Biso   1.000  H
  H638     1.0000 0.49020  0.06675  0.01177  Biso   1.000  H
  H639     1.0000 0.49028  0.06675  0.01177  Biso   1.000  H
  H640     1.0000 0.54330  0.18272  0.03496  Biso   1.000  H
  H641     1.0000 0.41057  0.09507  0.03556  Biso   1.000  H
  H642     1.0000 0.54337  0.18272  0.03496  Biso   1.000  H
  C494     1.0000 0.44546  0.50424  0.84309  Biso   1.000  C
  H643     1.0000 0.36688  0.47247  0.83943  Biso   1.000  H
  C495     1.0000 0.45544  0.41777  0.85260  Biso   1.000  C
  C496     1.0000 0.45536  0.41777  0.85260  Biso   1.000  C
  C497     1.0000 0.47803  0.60748  0.85257  Biso   1.000  C
  H644     1.0000 0.49486  0.52421  0.83374  Biso   1.000  H
  H645     1.0000 0.49489  0.52413  0.83374  Biso   1.000  H
  H646     1.0000 0.47338  0.66386  0.84583  Biso   1.000  H
  H647     1.0000 0.42313  0.58818  0.86123  Biso   1.000  H
  C498     1.0000 0.59537  0.65999  0.85952  Biso   1.000  C
  H648     1.0000 0.42306  0.58818  0.86123  Biso   1.000  H
  C499     1.0000 0.58052  0.46825  0.85827  Biso   1.000  C
  H649     1.0000 0.43314  0.34967  0.84613  Biso   1.000  H
  H650     1.0000 0.40444  0.39577  0.86183  Biso   1.000  H
  C500     1.0000 0.58045  0.46825  0.85827  Biso   1.000  C
  H651     1.0000 0.65210  0.68906  0.85084  Biso   1.000  H
  C501     1.0000 0.60801  0.57343  0.86877  Biso   1.000  C
  C502     1.0000 0.60793  0.57343  0.86877  Biso   1.000  C
  N68      1.0000 0.61625  0.75210  0.87000  Biso   1.000  N
  H652     1.0000 0.65203  0.68906  0.85084  Biso   1.000  H
  N69      1.0000 0.61628  0.75202  0.87000  Biso   1.000  N
  H653     1.0000 0.63213  0.49118  0.84914  Biso   1.000  H
  H654     1.0000 0.58915  0.41179  0.86443  Biso   1.000  H
  H655     1.0000 0.63206  0.49118  0.84914  Biso   1.000  H
  H656     1.0000 0.58903  0.41170  0.86443  Biso   1.000  H
  H657     1.0000 0.58908  0.41179  0.86443  Biso   1.000  H
  C503     1.0000 0.70224  0.84759  0.86902  Biso   1.000  C
  H658     1.0000 0.55759  0.54966  0.87823  Biso   1.000  H
  N70      1.0000 0.72452  0.62181  0.87361  Biso   1.000  N
  N71      1.0000 0.72448  0.62172  0.87361  Biso   1.000  N
  C504     1.0000 0.79269  0.88265  0.85633  Biso   1.000  C
  C505     1.0000 0.71895  0.93355  0.88114  Biso   1.000  C
  C506     1.0000 0.75304  0.61768  0.88763  Biso   1.000  C
  H659     1.0000 0.76266  0.82989  0.84743  Biso   1.000  H
  H660     1.0000 0.81490  0.95875  0.85264  Biso   1.000  H
  H661     1.0000 0.76258  0.82989  0.84743  Biso   1.000  H
  H662     1.0000 0.85844  0.88206  0.86073  Biso   1.000  H
  H663     1.0000 0.81483  0.95875  0.85264  Biso   1.000  H
  C507     1.0000 0.67035  0.89504  0.89644  Biso   1.000  C
  C508     1.0000 0.78301  0.04826  0.87927  Biso   1.000  C
  C509     1.0000 0.87537  0.66791  0.89047  Biso   1.000  C
  C510     1.0000 0.66473  0.52733  0.89983  Biso   1.000  C
  C511     1.0000 0.66466  0.52733  0.89983  Biso   1.000  C
  C512     1.0000 0.87530  0.66791  0.89047  Biso   1.000  C
  C513     1.0000 0.67968  0.59037  0.90223  Biso   1.000  C
  H664     1.0000 0.63005  0.81649  0.89863  Biso   1.000  H
  C514     1.0000 0.68106  0.96887  0.90780  Biso   1.000  C
  H665     1.0000 0.62998  0.81649  0.89863  Biso   1.000  H
  H666     1.0000 0.82318  0.07632  0.86963  Biso   1.000  H
  C515     1.0000 0.79262  0.12470  0.89047  Biso   1.000  C
  H667     1.0000 0.82313  0.07624  0.86963  Biso   1.000  H
  C516     1.0000 0.91968  0.66133  0.90523  Biso   1.000  C
  C517     1.0000 0.95163  0.73474  0.87927  Biso   1.000  C
  H668     1.0000 0.65710  0.45367  0.89784  Biso   1.000  H
  H669     1.0000 0.59132  0.52270  0.89843  Biso   1.000  H
  H670     1.0000 0.69160  0.55143  0.91064  Biso   1.000  H
  H671     1.0000 0.59121  0.52261  0.89843  Biso   1.000  H
  H672     1.0000 0.69153  0.55143  0.91064  Biso   1.000  H
  H673     1.0000 0.59125  0.52270  0.89843  Biso   1.000  H
  H674     1.0000 0.59128  0.52261  0.89843  Biso   1.000  H
  H675     1.0000 0.65251  0.51166  0.90533  Biso   1.000  H
  H676     1.0000 0.61480  0.59973  0.89994  Biso   1.000  H
  H677     1.0000 0.72347  0.64043  0.91084  Biso   1.000  H
  C518     1.0000 0.63886  0.92344  0.92436  Biso   1.000  C
  C519     1.0000 0.74159  0.08028  0.90523  Biso   1.000  C
  C520     1.0000 0.74166  0.08028  0.90523  Biso   1.000  C
  C521     1.0000 0.86460  0.24690  0.88763  Biso   1.000  C
  H678     1.0000 0.86942  0.61995  0.91353  Biso   1.000  H
  H679     1.0000 0.86935  0.61995  0.91353  Biso   1.000  H
  C522     1.0000 0.03111  0.71224  0.90780  Biso   1.000  C
  C523     1.0000 0.03118  0.71224  0.90780  Biso   1.000  C
  H680     1.0000 0.92369  0.74688  0.86963  Biso   1.000  H
  C524     1.0000 0.06648  0.78548  0.88114  Biso   1.000  C
  N72      1.0000 0.60839  0.97898  0.93266  Biso   1.000  N
  C525     1.0000 0.63743  0.81826  0.92859  Biso   1.000  C
  C526     1.0000 0.63736  0.81826  0.92859  Biso   1.000  C
  H681     1.0000 0.75054  0.13060  0.91353  Biso   1.000  H
  N73      1.0000 0.89721  0.27547  0.87361  Biso   1.000  N
  C527     1.0000 0.86260  0.33531  0.89983  Biso   1.000  C
  C528     1.0000 0.86268  0.33531  0.89983  Biso   1.000  C
  C529     1.0000 0.91072  0.32031  0.90223  Biso   1.000  C
  C530     1.0000 0.07657  0.71544  0.92436  Biso   1.000  C
  C531     1.0000 0.10500  0.77536  0.89644  Biso   1.000  C
  C532     1.0000 0.15243  0.85475  0.86902  Biso   1.000  C
  C533     1.0000 0.15251  0.85475  0.86902  Biso   1.000  C
  C534     1.0000 0.55227  0.93448  0.94781  Biso   1.000  C
  H682     1.0000 0.69054  0.80916  0.92183  Biso   1.000  H
  H683     1.0000 0.69047  0.80916  0.92183  Biso   1.000  H
  H684     1.0000 0.56124  0.75404  0.92704  Biso   1.000  H
  H685     1.0000 0.65922  0.82155  0.93963  Biso   1.000  H
  C535     1.0000 0.96548  0.39203  0.86877  Biso   1.000  C
  C536     1.0000 0.96544  0.39194  0.86877  Biso   1.000  C
  H686     1.0000 0.79655  0.34289  0.89784  Biso   1.000  H
  H687     1.0000 0.93142  0.40872  0.89843  Biso   1.000  H
  H688     1.0000 0.85982  0.30842  0.91064  Biso   1.000  H
  H689     1.0000 0.85985  0.30834  0.91064  Biso   1.000  H
  H690     1.0000 0.85923  0.34753  0.90533  Biso   1.000  H
  H691     1.0000 0.98492  0.38520  0.89994  Biso   1.000  H
  H692     1.0000 0.91691  0.27648  0.91084  Biso   1.000  H
  H693     1.0000 0.18358  0.81354  0.89863  Biso   1.000  H
  N74      1.0000 0.02104  0.62948  0.93266  Biso   1.000  N
  N75      1.0000 0.02111  0.62948  0.93266  Biso   1.000  N
  C537     1.0000 0.18180  0.81919  0.92859  Biso   1.000  C
  N76      1.0000 0.24799  0.86428  0.87000  Biso   1.000  N
  C538     1.0000 0.11738  0.91004  0.85633  Biso   1.000  C
  C539     1.0000 0.62930  0.99980  0.96120  Biso   1.000  C
  H694     1.0000 0.53104  0.85349  0.94873  Biso   1.000  H
  C540     1.0000 0.44466  0.94392  0.94852  Biso   1.000  C
  C541     1.0000 0.44469  0.94384  0.94852  Biso   1.000  C
  C542     1.0000 0.06453  0.40459  0.85952  Biso   1.000  C
  H695     1.0000 0.99207  0.44243  0.87823  Biso   1.000  H
  C543     1.0000 0.88777  0.41950  0.85827  Biso   1.000  C
  H696     1.0000 0.99214  0.44243  0.87823  Biso   1.000  H
  C544     1.0000 0.06551  0.61785  0.94781  Biso   1.000  C
  C545     1.0000 0.06558  0.61785  0.94781  Biso   1.000  C
  H697     1.0000 0.24600  0.80730  0.92704  Biso   1.000  H
  H698     1.0000 0.17849  0.83781  0.93963  Biso   1.000  H
  H699     1.0000 0.24596  0.80722  0.92704  Biso   1.000  H
  H700     1.0000 0.19093  0.88139  0.92183  Biso   1.000  H
  H701     1.0000 0.17852  0.83773  0.93963  Biso   1.000  H
  C546     1.0000 0.34009  0.93549  0.85952  Biso   1.000  C
  H702     1.0000 0.17014  0.93280  0.84743  Biso   1.000  H
  H703     1.0000 0.11796  0.97645  0.86073  Biso   1.000  H
  H704     1.0000 0.17021  0.93280  0.84743  Biso   1.000  H
  H705     1.0000 0.04133  0.85619  0.85264  Biso   1.000  H
  C547     1.0000 0.56919  0.95606  0.97742  Biso   1.000  C
  N77      1.0000 0.72696  0.98185  0.96087  Biso   1.000  N
  H706     1.0000 0.65523  0.08172  0.96003  Biso   1.000  H
  H707     1.0000 0.65519  0.08163  0.96003  Biso   1.000  H
  H708     1.0000 0.39404  0.90077  0.93973  Biso   1.000  H
  C548     1.0000 0.38400  0.89807  0.96410  Biso   1.000  C
  H709     1.0000 0.39397  0.90077  0.93973  Biso   1.000  H
  C549     1.0000 0.38393  0.89807  0.96410  Biso   1.000  C
  H710     1.0000 0.46504  0.02365  0.94733  Biso   1.000  H
  H711     1.0000 0.46511  0.02365  0.94733  Biso   1.000  H
  N78      1.0000 0.13575  0.38369  0.87000  Biso   1.000  N
  H712     1.0000 0.03690  0.34787  0.85084  Biso   1.000  H
  C550     1.0000 0.12939  0.52190  0.85257  Biso   1.000  C
  H713     1.0000 0.85899  0.36793  0.84914  Biso   1.000  H
  H714     1.0000 0.82260  0.41091  0.86443  Biso   1.000  H
  C551     1.0000 0.96235  0.54457  0.85260  Biso   1.000  C
  H715     1.0000 0.85909  0.36784  0.84914  Biso   1.000  H
  H716     1.0000 0.85913  0.36793  0.84914  Biso   1.000  H
  H717     1.0000 0.82274  0.41091  0.86443  Biso   1.000  H
  H718     1.0000 0.14659  0.67768  0.94873  Biso   1.000  H
  C552     1.0000 0.00028  0.62956  0.96120  Biso   1.000  C
  C553     1.0000 0.05621  0.50087  0.94852  Biso   1.000  C
  H719     1.0000 0.31103  0.96305  0.85084  Biso   1.000  H
  C554     1.0000 0.39264  0.87068  0.85257  Biso   1.000  C
  C555     1.0000 0.42661  0.03452  0.86877  Biso   1.000  C
  C556     1.0000 0.42657  0.03444  0.86877  Biso   1.000  C
  C557     1.0000 0.46313  0.96465  0.97812  Biso   1.000  C
  C558     1.0000 0.46306  0.96465  0.97812  Biso   1.000  C
  H720     1.0000 0.54938  0.87658  0.97893  Biso   1.000  H
  H721     1.0000 0.62082  0.00123  0.98604  Biso   1.000  H
  H722     1.0000 0.62078  0.00115  0.98604  Biso   1.000  H
  C559     1.0000 0.82550  0.05980  0.95737  Biso   1.000  C
  H723     1.0000 0.31549  0.90498  0.96444  Biso   1.000  H
  H724     1.0000 0.36060  0.81725  0.96504  Biso   1.000  H
  H725     1.0000 0.36053  0.81725  0.96504  Biso   1.000  H
  C560     1.0000 0.14525  0.29772  0.86902  Biso   1.000  C
  C561     1.0000 0.05877  0.55452  0.84309  Biso   1.000  C
  H726     1.0000 0.16504  0.57685  0.86123  Biso   1.000  H
  H727     1.0000 0.19051  0.52662  0.84583  Biso   1.000  H
  H728     1.0000 0.91647  0.56682  0.84613  Biso   1.000  H
  H729     1.0000 0.99123  0.59548  0.86183  Biso   1.000  H
  H730     1.0000 0.97625  0.44137  0.94733  Biso   1.000  H
  H731     1.0000 0.09928  0.49328  0.93973  Biso   1.000  H
  C562     1.0000 0.10196  0.48595  0.96410  Biso   1.000  C
  H732     1.0000 0.91836  0.57360  0.96003  Biso   1.000  H
  H733     1.0000 0.91824  0.57352  0.96003  Biso   1.000  H
  H734     1.0000 0.91829  0.57360  0.96003  Biso   1.000  H
  C563     1.0000 0.04395  0.61313  0.97742  Biso   1.000  C
  N79      1.0000 0.01824  0.74519  0.96087  Biso   1.000  N
  H735     1.0000 0.33618  0.80958  0.84583  Biso   1.000  H
  C564     1.0000 0.49579  0.94122  0.84309  Biso   1.000  C
  C565     1.0000 0.49583  0.94131  0.84309  Biso   1.000  C
  H736     1.0000 0.41193  0.83495  0.86123  Biso   1.000  H
  N80      1.0000 0.37822  0.10270  0.87361  Biso   1.000  N
  H737     1.0000 0.45030  0.00789  0.87823  Biso   1.000  H
  C566     1.0000 0.53169  0.11214  0.85827  Biso   1.000  C
  H738     1.0000 0.45037  0.00789  0.87823  Biso   1.000  H
  H739     1.0000 0.42344  0.93330  0.98823  Biso   1.000  H
  H740     1.0000 0.42347  0.93322  0.98823  Biso   1.000  H
  H741     1.0000 0.48316  0.04472  0.97753  Biso   1.000  H
  H742     1.0000 0.48320  0.04463  0.97753  Biso   1.000  H
  H743     1.0000 0.48324  0.04472  0.97753  Biso   1.000  H
  C567     1.0000 0.91795  0.02997  0.95757  Biso   1.000  C
  C568     1.0000 0.85818  0.17990  0.95229  Biso   1.000  C
  C569     1.0000 0.08989  0.20729  0.85633  Biso   1.000  C
  C570     1.0000 0.21452  0.28095  0.88114  Biso   1.000  C
  C571     1.0000 0.08996  0.20729  0.85633  Biso   1.000  C
  C572     1.0000 0.21445  0.28095  0.88114  Biso   1.000  C
  H744     1.0000 0.10553  0.63315  0.83943  Biso   1.000  H
  H745     1.0000 0.10549  0.63307  0.83943  Biso   1.000  H
  H746     1.0000 0.02933  0.50513  0.83374  Biso   1.000  H
  H747     1.0000 0.02922  0.50505  0.83374  Biso   1.000  H
  H748     1.0000 0.18277  0.54334  0.96504  Biso   1.000  H
  C573     1.0000 0.03540  0.49851  0.97812  Biso   1.000  C
  H749     1.0000 0.09505  0.41052  0.96444  Biso   1.000  H
  C574     1.0000 0.03536  0.49842  0.97812  Biso   1.000  C
  C575     1.0000 0.94017  0.76567  0.95737  Biso   1.000  C
  H750     1.0000 0.99888  0.61962  0.98604  Biso   1.000  H
  H751     1.0000 0.99877  0.61953  0.98604  Biso   1.000  H
  H752     1.0000 0.99881  0.61962  0.98604  Biso   1.000  H
  H753     1.0000 0.12346  0.67288  0.97893  Biso   1.000  H
  H754     1.0000 0.12354  0.67288  0.97893  Biso   1.000  H
  H755     1.0000 0.52758  0.89445  0.83943  Biso   1.000  H
  H756     1.0000 0.47591  0.97080  0.83374  Biso   1.000  H
  C576     1.0000 0.58220  0.03755  0.85260  Biso   1.000  C
  C577     1.0000 0.38239  0.13540  0.88763  Biso   1.000  C
  H757     1.0000 0.50884  0.14088  0.84914  Biso   1.000  H
  H758     1.0000 0.58821  0.17729  0.86443  Biso   1.000  H
  H759     1.0000 0.58835  0.17729  0.86443  Biso   1.000  H
  C578     1.0000 0.02924  0.11197  0.95762  Biso   1.000  C
  C579     1.0000 0.88803  0.91729  0.95762  Biso   1.000  C
  C580     1.0000 0.88796  0.91729  0.95762  Biso   1.000  C
  H760     1.0000 0.92611  0.21125  0.94574  Biso   1.000  H
  H761     1.0000 0.79637  0.17788  0.94623  Biso   1.000  H
  H762     1.0000 0.87295  0.22710  0.96163  Biso   1.000  H
  C581     1.0000 0.22460  0.32958  0.89644  Biso   1.000  C
  C582     1.0000 0.26519  0.21690  0.87927  Biso   1.000  C
  C583     1.0000 0.26526  0.21690  0.87927  Biso   1.000  C
  H763     1.0000 0.06727  0.23738  0.84743  Biso   1.000  H
  H764     1.0000 0.02355  0.14147  0.86073  Biso   1.000  H
  H765     1.0000 0.02362  0.14147  0.86073  Biso   1.000  H
  H766     1.0000 0.14379  0.18504  0.85264  Biso   1.000  H
  H767     1.0000 0.95533  0.43850  0.97753  Biso   1.000  H
  H768     1.0000 0.95529  0.43842  0.97753  Biso   1.000  H
  H769     1.0000 0.95526  0.43850  0.97753  Biso   1.000  H
  H770     1.0000 0.06682  0.49025  0.98823  Biso   1.000  H
  C584     1.0000 0.97000  0.88796  0.95757  Biso   1.000  C
  C585     1.0000 0.82005  0.67827  0.95229  Biso   1.000  C
  H771     1.0000 0.65042  0.08349  0.84613  Biso   1.000  H
  H772     1.0000 0.60428  0.00873  0.86183  Biso   1.000  H
  H773     1.0000 0.65027  0.08349  0.84613  Biso   1.000  H
  H774     1.0000 0.60417  0.00865  0.86183  Biso   1.000  H
  C586     1.0000 0.47265  0.13725  0.89983  Biso   1.000  C
  C587     1.0000 0.33210  0.20737  0.89047  Biso   1.000  C
  C588     1.0000 0.40962  0.08930  0.90223  Biso   1.000  C
  C589     1.0000 0.11204  0.08197  0.95757  Biso   1.000  C
  H775     1.0000 0.04978  0.18925  0.95764  Biso   1.000  H
  H776     1.0000 0.04963  0.18925  0.95764  Biso   1.000  H
  H777     1.0000 0.81073  0.86048  0.95764  Biso   1.000  H
  H778     1.0000 0.81065  0.86048  0.95764  Biso   1.000  H
  C590     1.0000 0.28771  0.31888  0.90780  Biso   1.000  C
  H779     1.0000 0.18644  0.37003  0.89863  Biso   1.000  H
  H780     1.0000 0.18640  0.36995  0.89863  Biso   1.000  H
  H781     1.0000 0.25309  0.17678  0.86963  Biso   1.000  H
  H782     1.0000 0.25316  0.17678  0.86963  Biso   1.000  H
  C591     1.0000 0.08276  0.97072  0.95762  Biso   1.000  C
  H783     1.0000 0.82210  0.61844  0.94623  Biso   1.000  H
  H784     1.0000 0.77291  0.64574  0.96163  Biso   1.000  H
  H785     1.0000 0.82203  0.61844  0.94623  Biso   1.000  H
  H786     1.0000 0.78863  0.71485  0.94574  Biso   1.000  H
  H787     1.0000 0.77284  0.64574  0.96163  Biso   1.000  H
  H788     1.0000 0.47735  0.06857  0.89843  Biso   1.000  H
  H789     1.0000 0.44861  0.14012  0.91064  Biso   1.000  H
  H790     1.0000 0.54638  0.20341  0.89784  Biso   1.000  H
  H791     1.0000 0.44857  0.14004  0.91064  Biso   1.000  H
  H792     1.0000 0.54646  0.20341  0.89784  Biso   1.000  H
  C592     1.0000 0.33858  0.25828  0.90523  Biso   1.000  C
  C593     1.0000 0.33872  0.25828  0.90523  Biso   1.000  C
  H793     1.0000 0.48829  0.14079  0.90533  Biso   1.000  H
  H794     1.0000 0.40026  0.01497  0.89994  Biso   1.000  H
  H795     1.0000 0.35961  0.08298  0.91084  Biso   1.000  H
  C594     1.0000 0.23436  0.17451  0.95737  Biso   1.000  C
  C595     1.0000 0.23443  0.17451  0.95737  Biso   1.000  C
  C596     1.0000 0.28452  0.36110  0.92436  Biso   1.000  C
  H796     1.0000 0.13960  0.95024  0.95764  Biso   1.000  H
  H797     1.0000 0.38009  0.24935  0.91353  Biso   1.000  H
  H798     1.0000 0.37995  0.24935  0.91353  Biso   1.000  H
  N81      1.0000 0.25494  0.27303  0.96087  Biso   1.000  N
  C597     1.0000 0.32172  0.14181  0.95229  Biso   1.000  C
  N82      1.0000 0.25489  0.27294  0.96087  Biso   1.000  N
  N83      1.0000 0.25482  0.27294  0.96087  Biso   1.000  N
  N84      1.0000 0.37057  0.39161  0.93266  Biso   1.000  N
  C598     1.0000 0.18091  0.36262  0.92859  Biso   1.000  C
  C599     1.0000 0.18076  0.36262  0.92859  Biso   1.000  C
  C600     1.0000 0.37041  0.37071  0.96120  Biso   1.000  C
  H799     1.0000 0.28516  0.07379  0.94574  Biso   1.000  H
  H800     1.0000 0.38159  0.20358  0.94623  Biso   1.000  H
  H801     1.0000 0.35432  0.12714  0.96163  Biso   1.000  H
  H802     1.0000 0.35427  0.12706  0.96163  Biso   1.000  H
  C601     1.0000 0.38221  0.44774  0.94781  Biso   1.000  C
  C602     1.0000 0.38217  0.44765  0.94781  Biso   1.000  C
  H803     1.0000 0.11863  0.30944  0.92183  Biso   1.000  H
  H804     1.0000 0.19283  0.43872  0.92704  Biso   1.000  H
  H805     1.0000 0.16221  0.34070  0.93963  Biso   1.000  H
  H806     1.0000 0.19276  0.43872  0.92704  Biso   1.000  H
  H807     1.0000 0.42644  0.34466  0.96003  Biso   1.000  H
  C603     1.0000 0.38688  0.43080  0.97742  Biso   1.000  C
  C604     1.0000 0.49919  0.55528  0.94852  Biso   1.000  C
  H808     1.0000 0.32243  0.46889  0.94873  Biso   1.000  H
  C605     1.0000 0.49905  0.55528  0.94852  Biso   1.000  C
  C606     1.0000 0.50154  0.53690  0.97812  Biso   1.000  C
  H809     1.0000 0.32708  0.45060  0.97893  Biso   1.000  H
  H810     1.0000 0.38051  0.37922  0.98604  Biso   1.000  H
  H811     1.0000 0.32716  0.45060  0.97893  Biso   1.000  H
  C607     1.0000 0.50146  0.53690  0.97812  Biso   1.000  C
  H812     1.0000 0.55870  0.53488  0.94733  Biso   1.000  H
  H813     1.0000 0.50682  0.60601  0.93973  Biso   1.000  H
  C608     1.0000 0.51410  0.61604  0.96410  Biso   1.000  C
  C609     1.0000 0.51413  0.61596  0.96410  Biso   1.000  C
  H814     1.0000 0.55855  0.53488  0.94733  Biso   1.000  H
  H815     1.0000 0.50675  0.60601  0.93973  Biso   1.000  H
  C610     1.0000 0.51406  0.61596  0.96410  Biso   1.000  C
  H816     1.0000 0.56165  0.51685  0.97753  Biso   1.000  H
  H817     1.0000 0.50981  0.57651  0.98823  Biso   1.000  H
  H818     1.0000 0.56161  0.51676  0.97753  Biso   1.000  H
  H819     1.0000 0.56153  0.51676  0.97753  Biso   1.000  H
  H820     1.0000 0.50966  0.57651  0.98823  Biso   1.000  H
  H821     1.0000 0.58948  0.68448  0.96444  Biso   1.000  H
  H822     1.0000 0.45665  0.63939  0.96504  Biso   1.000  H
