data_image0
_cell_length_a       23.809
_cell_length_b       23.809
_cell_length_c       23.207
_cell_angle_alpha    90
_cell_angle_beta     90
_cell_angle_gamma    90

_symmetry_space_group_name_H-M    "P 1"
_symmetry_int_tables_number       1

loop_
  _symmetry_equiv_pos_as_xyz
  'x, y, z'

loop_
  _atom_site_label
  _atom_site_occupancy
  _atom_site_fract_x
  _atom_site_fract_y
  _atom_site_fract_z
  _atom_site_thermal_displace_type
  _atom_site_B_iso_or_equiv
  _atom_site_type_symbol
  O1       1.0000 0.70339  0.48309  0.49330  Biso   1.000  O
  C1       1.0000 0.75749  0.48242  0.47408  Biso   1.000  C
  C2       1.0000 0.75753  0.48242  0.47408  Biso   1.000  C
  C3       1.0000 0.76269  0.45143  0.41380  Biso   1.000  C
  O2       1.0000 0.76101  0.43899  0.51601  Biso   1.000  O
  C4       1.0000 0.73149  0.48209  0.36760  Biso   1.000  C
  C5       1.0000 0.73153  0.48209  0.36760  Biso   1.000  C
  O3       1.0000 0.74060  0.39460  0.42130  Biso   1.000  O
  H1       1.0000 0.80201  0.45021  0.40139  Biso   1.000  H
  C6       1.0000 0.73699  0.44790  0.31120  Biso   1.000  C
  O4       1.0000 0.75509  0.53639  0.35791  Biso   1.000  O
  H2       1.0000 0.69218  0.48650  0.37928  Biso   1.000  H
  H3       1.0000 0.69222  0.48650  0.37928  Biso   1.000  H
  C7       1.0000 0.74388  0.36230  0.37140  Biso   1.000  C
  C8       1.0000 0.74392  0.36230  0.37140  Biso   1.000  C
  C9       1.0000 0.71439  0.38809  0.32201  Biso   1.000  C
  H4       1.0000 0.77609  0.44429  0.29840  Biso   1.000  H
  O5       1.0000 0.70578  0.47730  0.26729  Biso   1.000  O
  O6       1.0000 0.70583  0.47730  0.26729  Biso   1.000  O
  C10      1.0000 0.72011  0.58201  0.37269  Biso   1.000  C
  H5       1.0000 0.72489  0.32652  0.37859  Biso   1.000  H
  O7       1.0000 0.80323  0.35281  0.35778  Biso   1.000  O
  O8       1.0000 0.72099  0.35541  0.27022  Biso   1.000  O
  H6       1.0000 0.67428  0.38952  0.33171  Biso   1.000  H
  O9       1.0000 0.72103  0.35541  0.27022  Biso   1.000  O
  H7       1.0000 0.67432  0.38952  0.33171  Biso   1.000  H
  C11      1.0000 0.72099  0.62191  0.32201  Biso   1.000  C
  O10      1.0000 0.74308  0.60910  0.42250  Biso   1.000  O
  C12      1.0000 0.72103  0.62191  0.32201  Biso   1.000  C
  O11      1.0000 0.74312  0.60910  0.42250  Biso   1.000  O
  C13      1.0000 0.82511  0.29711  0.36618  Biso   1.000  C
  C14      1.0000 0.77920  0.64602  0.31068  Biso   1.000  C
  O12      1.0000 0.69932  0.59641  0.27108  Biso   1.000  O
  H8       1.0000 0.69638  0.65320  0.33270  Biso   1.000  H
  H9       1.0000 0.69642  0.65320  0.33270  Biso   1.000  H
  C15      1.0000 0.79772  0.63329  0.41759  Biso   1.000  C
  C16      1.0000 0.85400  0.27922  0.31068  Biso   1.000  C
  H10      1.0000 0.79520  0.27032  0.37519  Biso   1.000  H
  C17      1.0000 0.86673  0.29770  0.41759  Biso   1.000  C
  C18      1.0000 0.79709  0.67491  0.36618  Biso   1.000  C
  O13      1.0000 0.77941  0.68722  0.26591  Biso   1.000  O
  H11      1.0000 0.80432  0.61552  0.29879  Biso   1.000  H
  H12      1.0000 0.82481  0.60343  0.40919  Biso   1.000  H
  C19      1.0000 0.82129  0.65521  0.47098  Biso   1.000  C
  C20      1.0000 0.82133  0.65521  0.47098  Biso   1.000  C
  C21      1.0000 0.87811  0.22101  0.32201  Biso   1.000  C
  O14      1.0000 0.81280  0.27939  0.26591  Biso   1.000  O
  H13      1.0000 0.88450  0.30430  0.29879  Biso   1.000  H
  C22      1.0000 0.84481  0.32131  0.47098  Biso   1.000  C
  H14      1.0000 0.89659  0.32479  0.40919  Biso   1.000  H
  O15      1.0000 0.89088  0.24310  0.42250  Biso   1.000  O
  O16      1.0000 0.89092  0.24310  0.42250  Biso   1.000  O
  H15      1.0000 0.77030  0.70482  0.37519  Biso   1.000  H
  O17      1.0000 0.85279  0.69680  0.35778  Biso   1.000  O
  O18      1.0000 0.85283  0.69680  0.35778  Biso   1.000  O
  O19      1.0000 0.78311  0.69323  0.49041  Biso   1.000  O
  O20      1.0000 0.78701  0.64001  0.51721  Biso   1.000  O
  C23      1.0000 0.91801  0.22008  0.37269  Biso   1.000  C
  O21      1.0000 0.90361  0.19929  0.27108  Biso   1.000  O
  H16      1.0000 0.84682  0.19640  0.33270  Biso   1.000  H
  O22      1.0000 0.80680  0.28309  0.49041  Biso   1.000  O
  O23      1.0000 0.86001  0.28699  0.51721  Biso   1.000  O
  C24      1.0000 0.86232  0.75610  0.37140  Biso   1.000  C
  O24      1.0000 0.96359  0.25511  0.35791  Biso   1.000  O
  O25      1.0000 0.96363  0.25511  0.35791  Biso   1.000  O
  C25      1.0000 0.88811  0.78563  0.32201  Biso   1.000  C
  H17      1.0000 0.82649  0.77513  0.37859  Biso   1.000  H
  O26      1.0000 0.89458  0.75942  0.42130  Biso   1.000  O
  O27      1.0000 0.89462  0.75942  0.42130  Biso   1.000  O
  C26      1.0000 0.01789  0.23151  0.36760  Biso   1.000  C
  C27      1.0000 0.94792  0.76299  0.31120  Biso   1.000  C
  O28      1.0000 0.85539  0.77899  0.27022  Biso   1.000  O
  H18      1.0000 0.88950  0.82570  0.33171  Biso   1.000  H
  C28      1.0000 0.95140  0.73733  0.41380  Biso   1.000  C
  C29      1.0000 0.05208  0.23701  0.31120  Biso   1.000  C
  C30      1.0000 0.04860  0.26272  0.41380  Biso   1.000  C
  H19      1.0000 0.01348  0.19220  0.37928  Biso   1.000  H
  C31      1.0000 0.05212  0.23701  0.31120  Biso   1.000  C
  H20      1.0000 0.01352  0.19220  0.37928  Biso   1.000  H
  C32      1.0000 0.98211  0.76849  0.36760  Biso   1.000  C
  O29      1.0000 0.97732  0.79420  0.26729  Biso   1.000  O
  H21      1.0000 0.94431  0.72393  0.29840  Biso   1.000  H
  C33      1.0000 0.98240  0.74249  0.47408  Biso   1.000  C
  H22      1.0000 0.95023  0.69801  0.40139  Biso   1.000  H
  C34      1.0000 0.11189  0.21441  0.32201  Biso   1.000  C
  O30      1.0000 0.02268  0.20580  0.26729  Biso   1.000  O
  H23      1.0000 0.05569  0.27611  0.29840  Biso   1.000  H
  C35      1.0000 0.11193  0.21441  0.32201  Biso   1.000  C
  O31      1.0000 0.02272  0.20580  0.26729  Biso   1.000  O
  O32      1.0000 0.10542  0.24062  0.42130  Biso   1.000  O
  C36      1.0000 0.01760  0.25751  0.47408  Biso   1.000  C
  H24      1.0000 0.04981  0.30199  0.40139  Biso   1.000  H
  H25      1.0000 0.98652  0.80780  0.37928  Biso   1.000  H
  O33      1.0000 0.03641  0.74493  0.35791  Biso   1.000  O
  O34      1.0000 0.98312  0.79659  0.49330  Biso   1.000  O
  O35      1.0000 0.93901  0.73901  0.51601  Biso   1.000  O
  C37      1.0000 0.13772  0.24390  0.37140  Biso   1.000  C
  O36      1.0000 0.14461  0.22101  0.27022  Biso   1.000  O
  H26      1.0000 0.11050  0.17430  0.33171  Biso   1.000  H
  O37      1.0000 0.01688  0.20341  0.49330  Biso   1.000  O
  O38      1.0000 0.01693  0.20341  0.49330  Biso   1.000  O
  O39      1.0000 0.06099  0.26099  0.51601  Biso   1.000  O
  C38      1.0000 0.08199  0.77992  0.37269  Biso   1.000  C
  C39      1.0000 0.08203  0.77992  0.37269  Biso   1.000  C
  O40      1.0000 0.14721  0.30320  0.35778  Biso   1.000  O
  H27      1.0000 0.17351  0.22491  0.37859  Biso   1.000  H
  C40      1.0000 0.12189  0.77899  0.32201  Biso   1.000  C
  O41      1.0000 0.10912  0.75690  0.42250  Biso   1.000  O
  C41      1.0000 0.12193  0.77899  0.32201  Biso   1.000  C
  C42      1.0000 0.20291  0.32509  0.36618  Biso   1.000  C
  C43      1.0000 0.14600  0.72082  0.31068  Biso   1.000  C
  O42      1.0000 0.09639  0.80071  0.27108  Biso   1.000  O
  H28      1.0000 0.15322  0.80360  0.33270  Biso   1.000  H
  O43      1.0000 0.09643  0.80071  0.27108  Biso   1.000  O
  C44      1.0000 0.13331  0.70230  0.41759  Biso   1.000  C
  C45      1.0000 0.22080  0.35398  0.31068  Biso   1.000  C
  C46      1.0000 0.20232  0.36671  0.41759  Biso   1.000  C
  H29      1.0000 0.22970  0.29522  0.37519  Biso   1.000  H
  C47      1.0000 0.17489  0.70293  0.36618  Biso   1.000  C
  O44      1.0000 0.18720  0.72061  0.26591  Biso   1.000  O
  H30      1.0000 0.11550  0.69570  0.29879  Biso   1.000  H
  C48      1.0000 0.17493  0.70293  0.36618  Biso   1.000  C
  H31      1.0000 0.10341  0.67521  0.40919  Biso   1.000  H
  C49      1.0000 0.15524  0.67869  0.47098  Biso   1.000  C
  C50      1.0000 0.27901  0.37809  0.32201  Biso   1.000  C
  O45      1.0000 0.22059  0.31282  0.26591  Biso   1.000  O
  H32      1.0000 0.19568  0.38452  0.29879  Biso   1.000  H
  O46      1.0000 0.22063  0.31282  0.26591  Biso   1.000  O
  H33      1.0000 0.19572  0.38452  0.29879  Biso   1.000  H
  C51      1.0000 0.17871  0.34479  0.47098  Biso   1.000  C
  O47      1.0000 0.25692  0.39090  0.42250  Biso   1.000  O
  H34      1.0000 0.17519  0.39661  0.40919  Biso   1.000  H
  H35      1.0000 0.17523  0.39661  0.40919  Biso   1.000  H
  O48      1.0000 0.19682  0.64719  0.35778  Biso   1.000  O
  H36      1.0000 0.20480  0.72972  0.37519  Biso   1.000  H
  O49      1.0000 0.19320  0.71691  0.49041  Biso   1.000  O
  O50      1.0000 0.13999  0.71301  0.51721  Biso   1.000  O
  C52      1.0000 0.27989  0.41799  0.37269  Biso   1.000  C
  O51      1.0000 0.30068  0.40359  0.27108  Biso   1.000  O
  H37      1.0000 0.30362  0.34680  0.33270  Biso   1.000  H
  C53      1.0000 0.27994  0.41799  0.37269  Biso   1.000  C
  O52      1.0000 0.30073  0.40359  0.27108  Biso   1.000  O
  O53      1.0000 0.21689  0.30682  0.49041  Biso   1.000  O
  O54      1.0000 0.21693  0.30682  0.49041  Biso   1.000  O
  O55      1.0000 0.21299  0.35999  0.51721  Biso   1.000  O
  C54      1.0000 0.25612  0.63770  0.37140  Biso   1.000  C
  O56      1.0000 0.24491  0.46361  0.35791  Biso   1.000  O
  C55      1.0000 0.28561  0.61191  0.32201  Biso   1.000  C
  O57      1.0000 0.25940  0.60540  0.42130  Biso   1.000  O
  H38      1.0000 0.27511  0.67353  0.37859  Biso   1.000  H
  C56      1.0000 0.26851  0.51791  0.36760  Biso   1.000  C
  C57      1.0000 0.26301  0.55210  0.31120  Biso   1.000  C
  O58      1.0000 0.27901  0.64459  0.27022  Biso   1.000  O
  H39      1.0000 0.32572  0.61053  0.33171  Biso   1.000  H
  C58      1.0000 0.23731  0.54862  0.41380  Biso   1.000  C
  H40      1.0000 0.30782  0.51350  0.37928  Biso   1.000  H
  O59      1.0000 0.29422  0.52270  0.26729  Biso   1.000  O
  H41      1.0000 0.22391  0.55571  0.29840  Biso   1.000  H
  C59      1.0000 0.24251  0.51762  0.47408  Biso   1.000  C
  H42      1.0000 0.19799  0.54979  0.40139  Biso   1.000  H
  H43      1.0000 0.19803  0.54979  0.40139  Biso   1.000  H
  O60      1.0000 0.29661  0.51691  0.49330  Biso   1.000  O
  O61      1.0000 0.23899  0.56101  0.51601  Biso   1.000  O
  O62      1.0000 0.48309  0.70339  0.50670  Biso   1.000  O
  C60      1.0000 0.48242  0.75749  0.52592  Biso   1.000  C
  C61      1.0000 0.48242  0.75753  0.52592  Biso   1.000  C
  C62      1.0000 0.45143  0.76269  0.58620  Biso   1.000  C
  O63      1.0000 0.43899  0.76101  0.48399  Biso   1.000  O
  O64      1.0000 0.39460  0.74060  0.57870  Biso   1.000  O
  H44      1.0000 0.45021  0.80201  0.59861  Biso   1.000  H
  C63      1.0000 0.48209  0.73149  0.63240  Biso   1.000  C
  C64      1.0000 0.48209  0.73153  0.63240  Biso   1.000  C
  C65      1.0000 0.36230  0.74388  0.62860  Biso   1.000  C
  C66      1.0000 0.36230  0.74392  0.62860  Biso   1.000  C
  C67      1.0000 0.44790  0.73699  0.68880  Biso   1.000  C
  O65      1.0000 0.53639  0.75509  0.64209  Biso   1.000  O
  H45      1.0000 0.48650  0.69218  0.62072  Biso   1.000  H
  H46      1.0000 0.48650  0.69222  0.62072  Biso   1.000  H
  C68      1.0000 0.38809  0.71439  0.67799  Biso   1.000  C
  H47      1.0000 0.32652  0.72489  0.62141  Biso   1.000  H
  O66      1.0000 0.35281  0.80323  0.64218  Biso   1.000  O
  H48      1.0000 0.44429  0.77609  0.70160  Biso   1.000  H
  O67      1.0000 0.47730  0.70578  0.73271  Biso   1.000  O
  O68      1.0000 0.47730  0.70583  0.73271  Biso   1.000  O
  C69      1.0000 0.58201  0.72011  0.62731  Biso   1.000  C
  O69      1.0000 0.35541  0.72099  0.72978  Biso   1.000  O
  H49      1.0000 0.38952  0.67428  0.66829  Biso   1.000  H
  O70      1.0000 0.35541  0.72103  0.72978  Biso   1.000  O
  H50      1.0000 0.38952  0.67432  0.66829  Biso   1.000  H
  C70      1.0000 0.29711  0.82511  0.63382  Biso   1.000  C
  C71      1.0000 0.62191  0.72099  0.67799  Biso   1.000  C
  O71      1.0000 0.60910  0.74308  0.57750  Biso   1.000  O
  C72      1.0000 0.62191  0.72103  0.67799  Biso   1.000  C
  O72      1.0000 0.60910  0.74312  0.57750  Biso   1.000  O
  C73      1.0000 0.27922  0.85400  0.68932  Biso   1.000  C
  H51      1.0000 0.27032  0.79520  0.62481  Biso   1.000  H
  C74      1.0000 0.29770  0.86673  0.58241  Biso   1.000  C
  C75      1.0000 0.64602  0.77920  0.68932  Biso   1.000  C
  O73      1.0000 0.59641  0.69932  0.72892  Biso   1.000  O
  H52      1.0000 0.65320  0.69638  0.66730  Biso   1.000  H
  H53      1.0000 0.65320  0.69642  0.66730  Biso   1.000  H
  C76      1.0000 0.63329  0.79772  0.58241  Biso   1.000  C
  C77      1.0000 0.22101  0.87811  0.67799  Biso   1.000  C
  O74      1.0000 0.27939  0.81280  0.73409  Biso   1.000  O
  H54      1.0000 0.30430  0.88450  0.70121  Biso   1.000  H
  C78      1.0000 0.32131  0.84481  0.52898  Biso   1.000  C
  H55      1.0000 0.32479  0.89659  0.59081  Biso   1.000  H
  O75      1.0000 0.24310  0.89088  0.57750  Biso   1.000  O
  O76      1.0000 0.24310  0.89092  0.57750  Biso   1.000  O
  C79      1.0000 0.67491  0.79709  0.63382  Biso   1.000  C
  O77      1.0000 0.68722  0.77941  0.73409  Biso   1.000  O
  H56      1.0000 0.61552  0.80432  0.70121  Biso   1.000  H
  H57      1.0000 0.60343  0.82481  0.59081  Biso   1.000  H
  C80      1.0000 0.65521  0.82129  0.52898  Biso   1.000  C
  C81      1.0000 0.65521  0.82133  0.52898  Biso   1.000  C
  C82      1.0000 0.22008  0.91801  0.62731  Biso   1.000  C
  O78      1.0000 0.19929  0.90361  0.72892  Biso   1.000  O
  H58      1.0000 0.19640  0.84682  0.66730  Biso   1.000  H
  O79      1.0000 0.28309  0.80680  0.50959  Biso   1.000  O
  O80      1.0000 0.28699  0.86001  0.48279  Biso   1.000  O
  H59      1.0000 0.70482  0.77030  0.62481  Biso   1.000  H
  O81      1.0000 0.69680  0.85279  0.64218  Biso   1.000  O
  O82      1.0000 0.69680  0.85283  0.64218  Biso   1.000  O
  O83      1.0000 0.69323  0.78311  0.50959  Biso   1.000  O
  O84      1.0000 0.64001  0.78701  0.48279  Biso   1.000  O
  O85      1.0000 0.25511  0.96359  0.64209  Biso   1.000  O
  O86      1.0000 0.25511  0.96363  0.64209  Biso   1.000  O
  C83      1.0000 0.75610  0.86232  0.62860  Biso   1.000  C
  C84      1.0000 0.23151  0.01789  0.63240  Biso   1.000  C
  C85      1.0000 0.78563  0.88811  0.67799  Biso   1.000  C
  H60      1.0000 0.77513  0.82649  0.62141  Biso   1.000  H
  O87      1.0000 0.75942  0.89458  0.57870  Biso   1.000  O
  O88      1.0000 0.75942  0.89462  0.57870  Biso   1.000  O
  C86      1.0000 0.23701  0.05208  0.68880  Biso   1.000  C
  C87      1.0000 0.26272  0.04860  0.58620  Biso   1.000  C
  H61      1.0000 0.19220  0.01348  0.62072  Biso   1.000  H
  C88      1.0000 0.23701  0.05212  0.68880  Biso   1.000  C
  H62      1.0000 0.19220  0.01352  0.62072  Biso   1.000  H
  C89      1.0000 0.76299  0.94792  0.68880  Biso   1.000  C
  O89      1.0000 0.77899  0.85539  0.72978  Biso   1.000  O
  H63      1.0000 0.82570  0.88950  0.66829  Biso   1.000  H
  C90      1.0000 0.73733  0.95140  0.58620  Biso   1.000  C
  C91      1.0000 0.21441  0.11189  0.67799  Biso   1.000  C
  O90      1.0000 0.20580  0.02268  0.73271  Biso   1.000  O
  H64      1.0000 0.27611  0.05569  0.70160  Biso   1.000  H
  C92      1.0000 0.21441  0.11193  0.67799  Biso   1.000  C
  O91      1.0000 0.20580  0.02272  0.73271  Biso   1.000  O
  O92      1.0000 0.24062  0.10542  0.57870  Biso   1.000  O
  C93      1.0000 0.25751  0.01760  0.52592  Biso   1.000  C
  H65      1.0000 0.30199  0.04981  0.59861  Biso   1.000  H
  C94      1.0000 0.76849  0.98211  0.63240  Biso   1.000  C
  O93      1.0000 0.79420  0.97732  0.73271  Biso   1.000  O
  H66      1.0000 0.72393  0.94431  0.70160  Biso   1.000  H
  C95      1.0000 0.74249  0.98240  0.52592  Biso   1.000  C
  H67      1.0000 0.69801  0.95023  0.59861  Biso   1.000  H
  C96      1.0000 0.24390  0.13772  0.62860  Biso   1.000  C
  O94      1.0000 0.22101  0.14461  0.72978  Biso   1.000  O
  H68      1.0000 0.17430  0.11050  0.66829  Biso   1.000  H
  O95      1.0000 0.20341  0.01688  0.50670  Biso   1.000  O
  O96      1.0000 0.20341  0.01693  0.50670  Biso   1.000  O
  O97      1.0000 0.26099  0.06099  0.48399  Biso   1.000  O
  H69      1.0000 0.80780  0.98652  0.62072  Biso   1.000  H
  O98      1.0000 0.74493  0.03641  0.64209  Biso   1.000  O
  O99      1.0000 0.79659  0.98312  0.50670  Biso   1.000  O
  O100     1.0000 0.73901  0.93901  0.48399  Biso   1.000  O
  O101     1.0000 0.30320  0.14721  0.64218  Biso   1.000  O
  H70      1.0000 0.22491  0.17351  0.62141  Biso   1.000  H
  C97      1.0000 0.77992  0.08199  0.62731  Biso   1.000  C
  C98      1.0000 0.77992  0.08203  0.62731  Biso   1.000  C
  C99      1.0000 0.32509  0.20291  0.63382  Biso   1.000  C
  C100     1.0000 0.77899  0.12189  0.67799  Biso   1.000  C
  O102     1.0000 0.75690  0.10912  0.57750  Biso   1.000  O
  C101     1.0000 0.77899  0.12193  0.67799  Biso   1.000  C
  C102     1.0000 0.35398  0.22080  0.68932  Biso   1.000  C
  C103     1.0000 0.36671  0.20232  0.58241  Biso   1.000  C
  H71      1.0000 0.29522  0.22970  0.62481  Biso   1.000  H
  C104     1.0000 0.72082  0.14600  0.68932  Biso   1.000  C
  O103     1.0000 0.80071  0.09639  0.72892  Biso   1.000  O
  H72      1.0000 0.80360  0.15322  0.66730  Biso   1.000  H
  O104     1.0000 0.80071  0.09643  0.72892  Biso   1.000  O
  C105     1.0000 0.70230  0.13331  0.58241  Biso   1.000  C
  C106     1.0000 0.37809  0.27901  0.67799  Biso   1.000  C
  O105     1.0000 0.31282  0.22059  0.73409  Biso   1.000  O
  H73      1.0000 0.38452  0.19568  0.70121  Biso   1.000  H
  O106     1.0000 0.31282  0.22063  0.73409  Biso   1.000  O
  H74      1.0000 0.38452  0.19572  0.70121  Biso   1.000  H
  C107     1.0000 0.34479  0.17871  0.52898  Biso   1.000  C
  O107     1.0000 0.39090  0.25692  0.57750  Biso   1.000  O
  H75      1.0000 0.39661  0.17519  0.59081  Biso   1.000  H
  H76      1.0000 0.39661  0.17523  0.59081  Biso   1.000  H
  C108     1.0000 0.70293  0.17489  0.63382  Biso   1.000  C
  O108     1.0000 0.72061  0.18720  0.73409  Biso   1.000  O
  H77      1.0000 0.69570  0.11550  0.70121  Biso   1.000  H
  C109     1.0000 0.70293  0.17493  0.63382  Biso   1.000  C
  H78      1.0000 0.67521  0.10341  0.59081  Biso   1.000  H
  C110     1.0000 0.67869  0.15524  0.52898  Biso   1.000  C
  C111     1.0000 0.41799  0.27989  0.62731  Biso   1.000  C
  O109     1.0000 0.40359  0.30068  0.72892  Biso   1.000  O
  H79      1.0000 0.34680  0.30362  0.66730  Biso   1.000  H
  C112     1.0000 0.41799  0.27994  0.62731  Biso   1.000  C
  O110     1.0000 0.40359  0.30073  0.72892  Biso   1.000  O
  O111     1.0000 0.30682  0.21689  0.50959  Biso   1.000  O
  O112     1.0000 0.30682  0.21693  0.50959  Biso   1.000  O
  O113     1.0000 0.35999  0.21299  0.48279  Biso   1.000  O
  O114     1.0000 0.64719  0.19682  0.64218  Biso   1.000  O
  H80      1.0000 0.72972  0.20480  0.62481  Biso   1.000  H
  O115     1.0000 0.71691  0.19320  0.50959  Biso   1.000  O
  O116     1.0000 0.71301  0.13999  0.48279  Biso   1.000  O
  O117     1.0000 0.46361  0.24491  0.64209  Biso   1.000  O
  C113     1.0000 0.63770  0.25612  0.62860  Biso   1.000  C
  C114     1.0000 0.51791  0.26851  0.63240  Biso   1.000  C
  C115     1.0000 0.61191  0.28561  0.67799  Biso   1.000  C
  O118     1.0000 0.60540  0.25940  0.57870  Biso   1.000  O
  H81      1.0000 0.67353  0.27511  0.62141  Biso   1.000  H
  C116     1.0000 0.55210  0.26301  0.68880  Biso   1.000  C
  C117     1.0000 0.54862  0.23731  0.58620  Biso   1.000  C
  H82      1.0000 0.51350  0.30782  0.62072  Biso   1.000  H
  O119     1.0000 0.64459  0.27901  0.72978  Biso   1.000  O
  H83      1.0000 0.61053  0.32572  0.66829  Biso   1.000  H
  O120     1.0000 0.52270  0.29422  0.73271  Biso   1.000  O
  H84      1.0000 0.55571  0.22391  0.70160  Biso   1.000  H
  C118     1.0000 0.51762  0.24251  0.52592  Biso   1.000  C
  H85      1.0000 0.54979  0.19799  0.59861  Biso   1.000  H
  H86      1.0000 0.54979  0.19803  0.59861  Biso   1.000  H
  O121     1.0000 0.51691  0.29661  0.50670  Biso   1.000  O
  O122     1.0000 0.56101  0.23899  0.48399  Biso   1.000  O
  C119     1.0000 0.76568  0.53971  0.61848  Biso   1.000  C
  C120     1.0000 0.76572  0.53971  0.61848  Biso   1.000  C
  C121     1.0000 0.76971  0.56899  0.67630  Biso   1.000  C
  O123     1.0000 0.70872  0.54349  0.60090  Biso   1.000  O
  O124     1.0000 0.80302  0.56399  0.58099  Biso   1.000  O
  C122     1.0000 0.73510  0.54080  0.72258  Biso   1.000  C
  H87      1.0000 0.80890  0.56672  0.68871  Biso   1.000  H
  O125     1.0000 0.75308  0.62602  0.67040  Biso   1.000  O
  O126     1.0000 0.75312  0.62602  0.67040  Biso   1.000  O
  O127     1.0000 0.75240  0.48503  0.73409  Biso   1.000  O
  C123     1.0000 0.74031  0.57403  0.77989  Biso   1.000  C
  H88      1.0000 0.69650  0.54022  0.70811  Biso   1.000  H
  C124     1.0000 0.75908  0.65941  0.71961  Biso   1.000  C
  C125     1.0000 0.75912  0.65941  0.71961  Biso   1.000  C
  C126     1.0000 0.71339  0.44202  0.71832  Biso   1.000  C
  C127     1.0000 0.71343  0.44202  0.71832  Biso   1.000  C
  O128     1.0000 0.70268  0.54992  0.82311  Biso   1.000  O
  C128     1.0000 0.72473  0.63581  0.76822  Biso   1.000  C
  O129     1.0000 0.70272  0.54992  0.82311  Biso   1.000  O
  H89      1.0000 0.77882  0.57193  0.79459  Biso   1.000  H
  O130     1.0000 0.81730  0.66282  0.73642  Biso   1.000  O
  H90      1.0000 0.74573  0.69730  0.71052  Biso   1.000  H
  O131     1.0000 0.73661  0.41291  0.66881  Biso   1.000  O
  C129     1.0000 0.71019  0.40140  0.76951  Biso   1.000  C
  O132     1.0000 0.73371  0.66790  0.82079  Biso   1.000  O
  H91      1.0000 0.68520  0.63820  0.75671  Biso   1.000  H
  C130     1.0000 0.84308  0.71633  0.72409  Biso   1.000  C
  C131     1.0000 0.84313  0.71633  0.72409  Biso   1.000  C
  C132     1.0000 0.78848  0.38611  0.67639  Biso   1.000  C
  C133     1.0000 0.78853  0.38611  0.67639  Biso   1.000  C
  C134     1.0000 0.76421  0.37129  0.78041  Biso   1.000  C
  H92      1.0000 0.68340  0.37141  0.76068  Biso   1.000  H
  O133     1.0000 0.69163  0.43211  0.81812  Biso   1.000  O
  C135     1.0000 0.87131  0.73581  0.78041  Biso   1.000  C
  C136     1.0000 0.88609  0.71150  0.67639  Biso   1.000  C
  H93      1.0000 0.81490  0.74329  0.71078  Biso   1.000  H
  C137     1.0000 0.78370  0.34311  0.72409  Biso   1.000  C
  C138     1.0000 0.80339  0.36259  0.61960  Biso   1.000  C
  H94      1.0000 0.81872  0.41132  0.68880  Biso   1.000  H
  H95      1.0000 0.79281  0.39842  0.79278  Biso   1.000  H
  O134     1.0000 0.75858  0.33189  0.82531  Biso   1.000  O
  O135     1.0000 0.75862  0.33189  0.82531  Biso   1.000  O
  O136     1.0000 0.83191  0.74140  0.82531  Biso   1.000  O
  H96      1.0000 0.89840  0.70721  0.79278  Biso   1.000  H
  C139     1.0000 0.90138  0.78983  0.76951  Biso   1.000  C
  C140     1.0000 0.90142  0.78983  0.76951  Biso   1.000  C
  C141     1.0000 0.86261  0.69663  0.61960  Biso   1.000  C
  H97      1.0000 0.91129  0.68130  0.68880  Biso   1.000  H
  O137     1.0000 0.91289  0.76341  0.66881  Biso   1.000  O
  O138     1.0000 0.91293  0.76341  0.66881  Biso   1.000  O
  O139     1.0000 0.83720  0.31732  0.73642  Biso   1.000  O
  H98      1.0000 0.75669  0.31492  0.71078  Biso   1.000  H
  H99      1.0000 0.84031  0.34479  0.62292  Biso   1.000  H
  H100     1.0000 0.80541  0.39372  0.59198  Biso   1.000  H
  O140     1.0000 0.76589  0.32311  0.59818  Biso   1.000  O
  O141     1.0000 0.76593  0.32311  0.59818  Biso   1.000  O
  C142     1.0000 0.94200  0.78659  0.71832  Biso   1.000  C
  H101     1.0000 0.87139  0.81662  0.76068  Biso   1.000  H
  O142     1.0000 0.93208  0.80839  0.81812  Biso   1.000  O
  O143     1.0000 0.93213  0.80839  0.81812  Biso   1.000  O
  O144     1.0000 0.82309  0.73409  0.59818  Biso   1.000  O
  H102     1.0000 0.84481  0.65971  0.62292  Biso   1.000  H
  H103     1.0000 0.89370  0.69461  0.59198  Biso   1.000  H
  C143     1.0000 0.84061  0.25910  0.71961  Biso   1.000  C
  O145     1.0000 0.98501  0.74762  0.73409  Biso   1.000  O
  C144     1.0000 0.86421  0.22470  0.76822  Biso   1.000  C
  O146     1.0000 0.87400  0.25310  0.67040  Biso   1.000  O
  H104     1.0000 0.80272  0.24571  0.71052  Biso   1.000  H
  C145     1.0000 0.04082  0.76492  0.72258  Biso   1.000  C
  C146     1.0000 0.92599  0.24029  0.77989  Biso   1.000  C
  H105     1.0000 0.86182  0.18518  0.75671  Biso   1.000  H
  O147     1.0000 0.83208  0.23369  0.82079  Biso   1.000  O
  O148     1.0000 0.83212  0.23369  0.82079  Biso   1.000  O
  C147     1.0000 0.93099  0.26969  0.67630  Biso   1.000  C
  C148     1.0000 0.07401  0.75971  0.77989  Biso   1.000  C
  C149     1.0000 0.06901  0.73031  0.67630  Biso   1.000  C
  H106     1.0000 0.04019  0.80352  0.70811  Biso   1.000  H
  C150     1.0000 0.95922  0.23512  0.72258  Biso   1.000  C
  O149     1.0000 0.95010  0.20270  0.82311  Biso   1.000  O
  H107     1.0000 0.92809  0.27880  0.79459  Biso   1.000  H
  C151     1.0000 0.96031  0.26570  0.61848  Biso   1.000  C
  H108     1.0000 0.93330  0.30892  0.68871  Biso   1.000  H
  O150     1.0000 0.04990  0.79730  0.82311  Biso   1.000  O
  H109     1.0000 0.07191  0.72120  0.79459  Biso   1.000  H
  C152     1.0000 0.13583  0.77530  0.76822  Biso   1.000  C
  O151     1.0000 0.12600  0.74690  0.67040  Biso   1.000  O
  H110     1.0000 0.06670  0.69113  0.68871  Biso   1.000  H
  C153     1.0000 0.03973  0.73430  0.61848  Biso   1.000  C
  H111     1.0000 0.95981  0.19652  0.70811  Biso   1.000  H
  O152     1.0000 0.01499  0.25238  0.73409  Biso   1.000  O
  O153     1.0000 0.95649  0.20870  0.60090  Biso   1.000  O
  O154     1.0000 0.95653  0.20870  0.60090  Biso   1.000  O
  O155     1.0000 0.93603  0.30299  0.58099  Biso   1.000  O
  C154     1.0000 0.15939  0.74090  0.71961  Biso   1.000  C
  O156     1.0000 0.16792  0.76631  0.82079  Biso   1.000  O
  H112     1.0000 0.13818  0.81482  0.75671  Biso   1.000  H
  C155     1.0000 0.15944  0.74090  0.71961  Biso   1.000  C
  H113     1.0000 0.13823  0.81482  0.75671  Biso   1.000  H
  O157     1.0000 0.04351  0.79130  0.60090  Biso   1.000  O
  O158     1.0000 0.06401  0.69701  0.58099  Biso   1.000  O
  C156     1.0000 0.05800  0.21341  0.71832  Biso   1.000  C
  O159     1.0000 0.16280  0.68273  0.73642  Biso   1.000  O
  H114     1.0000 0.19732  0.75429  0.71052  Biso   1.000  H
  C157     1.0000 0.09862  0.21021  0.76951  Biso   1.000  C
  O160     1.0000 0.08711  0.23659  0.66881  Biso   1.000  O
  C158     1.0000 0.21630  0.65689  0.72409  Biso   1.000  C
  O161     1.0000 0.06792  0.19161  0.81812  Biso   1.000  O
  H115     1.0000 0.12861  0.18342  0.76068  Biso   1.000  H
  C159     1.0000 0.12873  0.26419  0.78041  Biso   1.000  C
  C160     1.0000 0.11391  0.28850  0.67639  Biso   1.000  C
  C161     1.0000 0.23579  0.62871  0.78041  Biso   1.000  C
  C162     1.0000 0.21152  0.61393  0.67639  Biso   1.000  C
  H116     1.0000 0.24331  0.68512  0.71078  Biso   1.000  H
  C163     1.0000 0.23584  0.62871  0.78041  Biso   1.000  C
  C164     1.0000 0.15692  0.28372  0.72409  Biso   1.000  C
  O162     1.0000 0.16809  0.25860  0.82531  Biso   1.000  O
  H117     1.0000 0.10160  0.29279  0.79278  Biso   1.000  H
  O163     1.0000 0.16813  0.25860  0.82531  Biso   1.000  O
  C165     1.0000 0.13739  0.30341  0.61960  Biso   1.000  C
  H118     1.0000 0.08871  0.31870  0.68880  Biso   1.000  H
  C166     1.0000 0.13743  0.30341  0.61960  Biso   1.000  C
  C167     1.0000 0.28981  0.59860  0.76951  Biso   1.000  C
  O164     1.0000 0.24142  0.66811  0.82531  Biso   1.000  O
  H119     1.0000 0.20723  0.60162  0.79278  Biso   1.000  H
  C168     1.0000 0.19661  0.63741  0.61960  Biso   1.000  C
  O165     1.0000 0.26339  0.58709  0.66881  Biso   1.000  O
  H120     1.0000 0.18132  0.58873  0.68880  Biso   1.000  H
  O166     1.0000 0.26343  0.58709  0.66881  Biso   1.000  O
  O167     1.0000 0.18270  0.33718  0.73642  Biso   1.000  O
  H121     1.0000 0.18510  0.25671  0.71078  Biso   1.000  H
  O168     1.0000 0.17691  0.26591  0.59818  Biso   1.000  O
  H122     1.0000 0.10630  0.30539  0.59198  Biso   1.000  H
  H123     1.0000 0.15524  0.34029  0.62292  Biso   1.000  H
  C169     1.0000 0.28661  0.55802  0.71832  Biso   1.000  C
  O169     1.0000 0.30841  0.56789  0.81812  Biso   1.000  O
  H124     1.0000 0.31660  0.62863  0.76068  Biso   1.000  H
  O170     1.0000 0.23411  0.67693  0.59818  Biso   1.000  O
  H125     1.0000 0.19459  0.60633  0.59198  Biso   1.000  H
  H126     1.0000 0.15973  0.65521  0.62292  Biso   1.000  H
  H127     1.0000 0.19463  0.60633  0.59198  Biso   1.000  H
  C170     1.0000 0.24092  0.34059  0.71961  Biso   1.000  C
  O171     1.0000 0.24760  0.51502  0.73409  Biso   1.000  O
  C171     1.0000 0.27532  0.36419  0.76822  Biso   1.000  C
  O172     1.0000 0.24692  0.37402  0.67040  Biso   1.000  O
  H128     1.0000 0.25432  0.30270  0.71052  Biso   1.000  H
  C172     1.0000 0.26490  0.45920  0.72258  Biso   1.000  C
  H129     1.0000 0.31480  0.36180  0.75671  Biso   1.000  H
  C173     1.0000 0.25973  0.42602  0.77989  Biso   1.000  C
  O173     1.0000 0.26633  0.33210  0.82079  Biso   1.000  O
  C174     1.0000 0.23033  0.43101  0.67630  Biso   1.000  C
  H130     1.0000 0.30350  0.45983  0.70811  Biso   1.000  H
  O174     1.0000 0.29732  0.45012  0.82311  Biso   1.000  O
  H131     1.0000 0.22122  0.42812  0.79459  Biso   1.000  H
  C175     1.0000 0.23432  0.46029  0.61848  Biso   1.000  C
  H132     1.0000 0.19110  0.43332  0.68871  Biso   1.000  H
  O175     1.0000 0.29132  0.45651  0.60090  Biso   1.000  O
  O176     1.0000 0.19698  0.43601  0.58099  Biso   1.000  O
  C176     1.0000 0.53971  0.76568  0.38148  Biso   1.000  C
  C177     1.0000 0.53971  0.76572  0.38148  Biso   1.000  C
  C178     1.0000 0.56899  0.76971  0.32370  Biso   1.000  C
  O177     1.0000 0.54349  0.70872  0.39910  Biso   1.000  O
  O178     1.0000 0.56399  0.80302  0.41901  Biso   1.000  O
  C179     1.0000 0.54080  0.73510  0.27742  Biso   1.000  C
  H133     1.0000 0.56672  0.80890  0.31129  Biso   1.000  H
  O179     1.0000 0.62602  0.75308  0.32960  Biso   1.000  O
  O180     1.0000 0.62602  0.75312  0.32960  Biso   1.000  O
  O181     1.0000 0.48503  0.75240  0.26591  Biso   1.000  O
  C180     1.0000 0.57403  0.74031  0.22011  Biso   1.000  C
  H134     1.0000 0.54022  0.69650  0.29189  Biso   1.000  H
  C181     1.0000 0.65941  0.75908  0.28039  Biso   1.000  C
  C182     1.0000 0.65941  0.75912  0.28039  Biso   1.000  C
  C183     1.0000 0.44202  0.71339  0.28168  Biso   1.000  C
  C184     1.0000 0.44202  0.71343  0.28168  Biso   1.000  C
  O182     1.0000 0.54992  0.70268  0.17689  Biso   1.000  O
  C185     1.0000 0.63581  0.72473  0.23178  Biso   1.000  C
  O183     1.0000 0.54992  0.70272  0.17689  Biso   1.000  O
  H135     1.0000 0.57193  0.77882  0.20541  Biso   1.000  H
  O184     1.0000 0.66282  0.81730  0.26358  Biso   1.000  O
  H136     1.0000 0.69730  0.74573  0.28948  Biso   1.000  H
  C186     1.0000 0.40140  0.71019  0.23049  Biso   1.000  C
  O185     1.0000 0.41291  0.73661  0.33119  Biso   1.000  O
  O186     1.0000 0.66790  0.73371  0.17921  Biso   1.000  O
  H137     1.0000 0.63820  0.68520  0.24329  Biso   1.000  H
  C187     1.0000 0.71633  0.84308  0.27591  Biso   1.000  C
  C188     1.0000 0.71633  0.84313  0.27591  Biso   1.000  C
  C189     1.0000 0.37129  0.76421  0.21959  Biso   1.000  C
  H138     1.0000 0.37141  0.68340  0.23928  Biso   1.000  H
  O187     1.0000 0.43211  0.69163  0.18188  Biso   1.000  O
  C190     1.0000 0.38611  0.78848  0.32361  Biso   1.000  C
  C191     1.0000 0.38611  0.78853  0.32361  Biso   1.000  C
  C192     1.0000 0.73581  0.87131  0.21959  Biso   1.000  C
  C193     1.0000 0.71150  0.88609  0.32361  Biso   1.000  C
  H139     1.0000 0.74329  0.81490  0.28918  Biso   1.000  H
  C194     1.0000 0.34311  0.78370  0.27591  Biso   1.000  C
  H140     1.0000 0.39842  0.79281  0.20718  Biso   1.000  H
  O188     1.0000 0.33189  0.75858  0.17469  Biso   1.000  O
  O189     1.0000 0.33189  0.75862  0.17469  Biso   1.000  O
  C195     1.0000 0.36259  0.80339  0.38040  Biso   1.000  C
  H141     1.0000 0.41132  0.81872  0.31120  Biso   1.000  H
  O190     1.0000 0.74140  0.83191  0.17469  Biso   1.000  O
  H142     1.0000 0.70721  0.89840  0.20718  Biso   1.000  H
  C196     1.0000 0.78983  0.90138  0.23049  Biso   1.000  C
  C197     1.0000 0.78983  0.90142  0.23049  Biso   1.000  C
  C198     1.0000 0.69663  0.86261  0.38040  Biso   1.000  C
  H143     1.0000 0.68130  0.91129  0.31120  Biso   1.000  H
  O191     1.0000 0.76341  0.91289  0.33119  Biso   1.000  O
  O192     1.0000 0.76341  0.91293  0.33119  Biso   1.000  O
  O193     1.0000 0.31732  0.83720  0.26358  Biso   1.000  O
  H144     1.0000 0.31492  0.75669  0.28918  Biso   1.000  H
  H145     1.0000 0.34479  0.84031  0.37708  Biso   1.000  H
  H146     1.0000 0.39372  0.80541  0.40798  Biso   1.000  H
  O194     1.0000 0.32311  0.76589  0.40182  Biso   1.000  O
  O195     1.0000 0.32311  0.76593  0.40182  Biso   1.000  O
  C199     1.0000 0.78659  0.94200  0.28168  Biso   1.000  C
  H147     1.0000 0.81662  0.87139  0.23928  Biso   1.000  H
  O196     1.0000 0.80839  0.93208  0.18188  Biso   1.000  O
  O197     1.0000 0.80839  0.93213  0.18188  Biso   1.000  O
  O198     1.0000 0.73409  0.82309  0.40182  Biso   1.000  O
  H148     1.0000 0.65971  0.84481  0.37708  Biso   1.000  H
  H149     1.0000 0.69461  0.89370  0.40798  Biso   1.000  H
  C200     1.0000 0.25910  0.84061  0.28039  Biso   1.000  C
  O199     1.0000 0.74762  0.98501  0.26591  Biso   1.000  O
  C201     1.0000 0.22470  0.86421  0.23178  Biso   1.000  C
  O200     1.0000 0.25310  0.87400  0.32960  Biso   1.000  O
  H150     1.0000 0.24571  0.80272  0.28948  Biso   1.000  H
  C202     1.0000 0.76492  0.04082  0.27742  Biso   1.000  C
  C203     1.0000 0.24029  0.92599  0.22011  Biso   1.000  C
  H151     1.0000 0.18518  0.86182  0.24329  Biso   1.000  H
  O201     1.0000 0.23369  0.83208  0.17921  Biso   1.000  O
  O202     1.0000 0.23369  0.83212  0.17921  Biso   1.000  O
  C204     1.0000 0.26969  0.93099  0.32370  Biso   1.000  C
  C205     1.0000 0.75971  0.07401  0.22011  Biso   1.000  C
  C206     1.0000 0.73031  0.06901  0.32370  Biso   1.000  C
  H152     1.0000 0.80352  0.04019  0.29189  Biso   1.000  H
  C207     1.0000 0.23512  0.95922  0.27742  Biso   1.000  C
  O203     1.0000 0.20270  0.95010  0.17689  Biso   1.000  O
  H153     1.0000 0.27880  0.92809  0.20541  Biso   1.000  H
  C208     1.0000 0.26570  0.96031  0.38148  Biso   1.000  C
  H154     1.0000 0.30892  0.93330  0.31129  Biso   1.000  H
  O204     1.0000 0.79730  0.04990  0.17689  Biso   1.000  O
  H155     1.0000 0.72120  0.07191  0.20541  Biso   1.000  H
  C209     1.0000 0.77530  0.13583  0.23178  Biso   1.000  C
  O205     1.0000 0.74690  0.12600  0.32960  Biso   1.000  O
  H156     1.0000 0.69113  0.06670  0.31129  Biso   1.000  H
  C210     1.0000 0.73430  0.03973  0.38148  Biso   1.000  C
  H157     1.0000 0.19652  0.95981  0.29189  Biso   1.000  H
  O206     1.0000 0.25238  0.01499  0.26591  Biso   1.000  O
  O207     1.0000 0.20870  0.95649  0.39910  Biso   1.000  O
  O208     1.0000 0.20870  0.95653  0.39910  Biso   1.000  O
  O209     1.0000 0.30299  0.93603  0.41901  Biso   1.000  O
  C211     1.0000 0.74090  0.15939  0.28039  Biso   1.000  C
  O210     1.0000 0.76631  0.16792  0.17921  Biso   1.000  O
  H158     1.0000 0.81482  0.13818  0.24329  Biso   1.000  H
  C212     1.0000 0.74090  0.15944  0.28039  Biso   1.000  C
  H159     1.0000 0.81482  0.13823  0.24329  Biso   1.000  H
  O211     1.0000 0.79130  0.04351  0.39910  Biso   1.000  O
  O212     1.0000 0.69701  0.06401  0.41901  Biso   1.000  O
  C213     1.0000 0.21341  0.05800  0.28168  Biso   1.000  C
  O213     1.0000 0.68273  0.16280  0.26358  Biso   1.000  O
  H160     1.0000 0.75429  0.19732  0.28948  Biso   1.000  H
  C214     1.0000 0.21021  0.09862  0.23049  Biso   1.000  C
  O214     1.0000 0.23659  0.08711  0.33119  Biso   1.000  O
  C215     1.0000 0.65689  0.21630  0.27591  Biso   1.000  C
  O215     1.0000 0.19161  0.06792  0.18188  Biso   1.000  O
  H161     1.0000 0.18342  0.12861  0.23928  Biso   1.000  H
  C216     1.0000 0.26419  0.12873  0.21959  Biso   1.000  C
  C217     1.0000 0.28850  0.11391  0.32361  Biso   1.000  C
  C218     1.0000 0.62871  0.23579  0.21959  Biso   1.000  C
  C219     1.0000 0.61393  0.21152  0.32361  Biso   1.000  C
  H162     1.0000 0.68512  0.24331  0.28918  Biso   1.000  H
  C220     1.0000 0.62871  0.23584  0.21959  Biso   1.000  C
  C221     1.0000 0.28372  0.15692  0.27591  Biso   1.000  C
  O216     1.0000 0.25860  0.16809  0.17469  Biso   1.000  O
  H163     1.0000 0.29279  0.10160  0.20718  Biso   1.000  H
  O217     1.0000 0.25860  0.16813  0.17469  Biso   1.000  O
  C222     1.0000 0.30341  0.13739  0.38040  Biso   1.000  C
  H164     1.0000 0.31870  0.08871  0.31120  Biso   1.000  H
  C223     1.0000 0.30341  0.13743  0.38040  Biso   1.000  C
  C224     1.0000 0.59860  0.28981  0.23049  Biso   1.000  C
  O218     1.0000 0.66811  0.24142  0.17469  Biso   1.000  O
  H165     1.0000 0.60162  0.20723  0.20718  Biso   1.000  H
  O219     1.0000 0.58709  0.26339  0.33119  Biso   1.000  O
  O220     1.0000 0.58709  0.26343  0.33119  Biso   1.000  O
  C225     1.0000 0.63741  0.19661  0.38040  Biso   1.000  C
  H166     1.0000 0.58873  0.18132  0.31120  Biso   1.000  H
  O221     1.0000 0.33718  0.18270  0.26358  Biso   1.000  O
  H167     1.0000 0.25671  0.18510  0.28918  Biso   1.000  H
  O222     1.0000 0.26591  0.17691  0.40182  Biso   1.000  O
  H168     1.0000 0.30539  0.10630  0.40798  Biso   1.000  H
  H169     1.0000 0.34029  0.15524  0.37708  Biso   1.000  H
  C226     1.0000 0.55802  0.28661  0.28168  Biso   1.000  C
  O223     1.0000 0.56789  0.30841  0.18188  Biso   1.000  O
  H170     1.0000 0.62863  0.31660  0.23928  Biso   1.000  H
  O224     1.0000 0.67693  0.23411  0.40182  Biso   1.000  O
  H171     1.0000 0.60633  0.19459  0.40798  Biso   1.000  H
  H172     1.0000 0.65521  0.15973  0.37708  Biso   1.000  H
  H173     1.0000 0.60633  0.19463  0.40798  Biso   1.000  H
  C227     1.0000 0.34059  0.24092  0.28039  Biso   1.000  C
  O225     1.0000 0.51502  0.24760  0.26591  Biso   1.000  O
  C228     1.0000 0.36419  0.27532  0.23178  Biso   1.000  C
  O226     1.0000 0.37402  0.24692  0.32960  Biso   1.000  O
  H174     1.0000 0.30270  0.25432  0.28948  Biso   1.000  H
  C229     1.0000 0.45920  0.26490  0.27742  Biso   1.000  C
  H175     1.0000 0.36180  0.31480  0.24329  Biso   1.000  H
  C230     1.0000 0.42602  0.25973  0.22011  Biso   1.000  C
  O227     1.0000 0.33210  0.26633  0.17921  Biso   1.000  O
  C231     1.0000 0.43101  0.23033  0.32370  Biso   1.000  C
  H176     1.0000 0.45983  0.30350  0.29189  Biso   1.000  H
  O228     1.0000 0.45012  0.29732  0.17689  Biso   1.000  O
  H177     1.0000 0.42812  0.22122  0.20541  Biso   1.000  H
  C232     1.0000 0.46029  0.23432  0.38148  Biso   1.000  C
  H178     1.0000 0.43332  0.19110  0.31129  Biso   1.000  H
  O229     1.0000 0.45651  0.29132  0.39910  Biso   1.000  O
  O230     1.0000 0.43601  0.19698  0.41901  Biso   1.000  O
  O231     1.0000 0.57020  0.28481  0.84418  Biso   1.000  O
  C233     1.0000 0.53589  0.26440  0.89021  Biso   1.000  C
  C234     1.0000 0.48771  0.30371  0.89930  Biso   1.000  C
  C235     1.0000 0.56983  0.26104  0.94540  Biso   1.000  C
  H179     1.0000 0.52199  0.22693  0.88021  Biso   1.000  H
  C236     1.0000 0.45029  0.28808  0.95101  Biso   1.000  C
  C237     1.0000 0.45029  0.28813  0.95101  Biso   1.000  C
  O232     1.0000 0.45210  0.30530  0.84681  Biso   1.000  O
  H180     1.0000 0.50452  0.34042  0.90748  Biso   1.000  H
  C238     1.0000 0.53102  0.24403  0.99522  Biso   1.000  C
  O233     1.0000 0.61221  0.22071  0.93769  Biso   1.000  O
  H181     1.0000 0.58679  0.29753  0.95450  Biso   1.000  H
  O234     1.0000 0.42429  0.23470  0.93799  Biso   1.000  O
  O235     1.0000 0.48519  0.28204  0.00039  Biso   1.000  O
  H182     1.0000 0.51733  0.20652  0.98509  Biso   1.000  H
  C239     1.0000 0.56080  0.23840  0.05348  Biso   1.000  C
  C240     1.0000 0.66811  0.23621  0.95070  Biso   1.000  C
  C241     1.0000 0.36499  0.23281  0.94760  Biso   1.000  C
  O236     1.0000 0.59192  0.28892  0.06158  Biso   1.000  O
  O237     1.0000 0.52300  0.22101  0.09700  Biso   1.000  O
  H183     1.0000 0.66941  0.27641  0.95971  Biso   1.000  H
  C242     1.0000 0.70511  0.22609  0.89818  Biso   1.000  C
  C243     1.0000 0.70511  0.22613  0.89818  Biso   1.000  C
  O238     1.0000 0.68760  0.20853  0.00022  Biso   1.000  O
  C244     1.0000 0.33920  0.21080  0.89171  Biso   1.000  C
  C245     1.0000 0.35012  0.19190  0.99530  Biso   1.000  C
  H184     1.0000 0.35130  0.27011  0.95859  Biso   1.000  H
  C246     1.0000 0.71082  0.16082  0.89171  Biso   1.000  C
  O239     1.0000 0.68071  0.24970  0.84798  Biso   1.000  O
  H185     1.0000 0.74190  0.24403  0.90309  Biso   1.000  H
  C247     1.0000 0.69192  0.14990  0.99530  Biso   1.000  C
  O240     1.0000 0.34999  0.25150  0.84449  Biso   1.000  O
  H186     1.0000 0.35592  0.17422  0.88310  Biso   1.000  H
  C248     1.0000 0.27389  0.20509  0.89818  Biso   1.000  C
  C249     1.0000 0.27389  0.20513  0.89818  Biso   1.000  C
  H187     1.0000 0.36621  0.15519  0.98600  Biso   1.000  H
  H188     1.0000 0.36621  0.15524  0.98600  Biso   1.000  H
  C250     1.0000 0.37330  0.21311  0.05218  Biso   1.000  C
  O241     1.0000 0.29149  0.18762  0.00022  Biso   1.000  O
  H189     1.0000 0.67420  0.14411  0.88310  Biso   1.000  H
  C251     1.0000 0.73279  0.13503  0.94760  Biso   1.000  C
  O242     1.0000 0.75152  0.15003  0.84449  Biso   1.000  O
  H190     1.0000 0.65521  0.13381  0.98600  Biso   1.000  H
  C252     1.0000 0.71309  0.12672  0.05218  Biso   1.000  C
  C253     1.0000 0.26381  0.16809  0.95070  Biso   1.000  C
  O243     1.0000 0.25028  0.18069  0.84798  Biso   1.000  O
  C254     1.0000 0.26381  0.16813  0.95070  Biso   1.000  C
  O244     1.0000 0.25028  0.18073  0.84798  Biso   1.000  O
  H191     1.0000 0.25600  0.24193  0.90309  Biso   1.000  H
  O245     1.0000 0.35818  0.27061  0.06339  Biso   1.000  O
  O246     1.0000 0.36100  0.17002  0.09269  Biso   1.000  O
  O247     1.0000 0.73472  0.07573  0.93799  Biso   1.000  O
  H192     1.0000 0.77013  0.14873  0.95859  Biso   1.000  H
  O248     1.0000 0.77059  0.14180  0.06339  Biso   1.000  O
  O249     1.0000 0.67000  0.13898  0.09269  Biso   1.000  O
  O250     1.0000 0.27931  0.11218  0.93769  Biso   1.000  O
  O251     1.0000 0.27931  0.11223  0.93769  Biso   1.000  O
  H193     1.0000 0.22361  0.16943  0.95971  Biso   1.000  H
  C255     1.0000 0.78811  0.04973  0.95101  Biso   1.000  C
  C256     1.0000 0.23899  0.06981  0.94540  Biso   1.000  C
  C257     1.0000 0.80373  0.01231  0.89930  Biso   1.000  C
  O252     1.0000 0.78202  0.01478  0.00039  Biso   1.000  O
  O253     1.0000 0.78202  0.01483  0.00039  Biso   1.000  O
  C258     1.0000 0.23558  0.03591  0.89021  Biso   1.000  C
  C259     1.0000 0.25600  0.03100  0.99522  Biso   1.000  C
  H194     1.0000 0.20249  0.08682  0.95450  Biso   1.000  H
  C260     1.0000 0.76442  0.96409  0.89021  Biso   1.000  C
  H195     1.0000 0.84040  0.99551  0.90748  Biso   1.000  H
  C261     1.0000 0.76442  0.96413  0.89021  Biso   1.000  C
  O254     1.0000 0.80533  0.04788  0.84681  Biso   1.000  O
  O255     1.0000 0.80533  0.04792  0.84681  Biso   1.000  O
  C262     1.0000 0.74400  0.96900  0.99522  Biso   1.000  C
  H196     1.0000 0.27309  0.02201  0.88021  Biso   1.000  H
  C263     1.0000 0.19631  0.98769  0.89930  Biso   1.000  C
  O256     1.0000 0.21521  0.07023  0.84418  Biso   1.000  O
  H197     1.0000 0.29350  0.01730  0.98509  Biso   1.000  H
  O257     1.0000 0.21798  0.98522  0.00039  Biso   1.000  O
  C264     1.0000 0.26162  0.06082  0.05348  Biso   1.000  C
  C265     1.0000 0.76101  0.93019  0.94540  Biso   1.000  C
  O258     1.0000 0.78483  0.92982  0.84418  Biso   1.000  O
  H198     1.0000 0.72691  0.97799  0.88021  Biso   1.000  H
  H199     1.0000 0.70650  0.98270  0.98509  Biso   1.000  H
  C266     1.0000 0.73842  0.93922  0.05348  Biso   1.000  C
  H200     1.0000 0.15960  0.00449  0.90748  Biso   1.000  H
  C267     1.0000 0.21189  0.95031  0.95101  Biso   1.000  C
  O259     1.0000 0.19472  0.95212  0.84681  Biso   1.000  O
  O260     1.0000 0.21110  0.09190  0.06158  Biso   1.000  O
  O261     1.0000 0.27901  0.02302  0.09700  Biso   1.000  O
  H201     1.0000 0.79751  0.91318  0.95450  Biso   1.000  H
  O262     1.0000 0.72069  0.88782  0.93769  Biso   1.000  O
  H202     1.0000 0.79751  0.91323  0.95450  Biso   1.000  H
  O263     1.0000 0.78890  0.90810  0.06158  Biso   1.000  O
  O264     1.0000 0.72103  0.97703  0.09700  Biso   1.000  O
  O265     1.0000 0.26532  0.92431  0.93799  Biso   1.000  O
  C268     1.0000 0.73619  0.83191  0.95070  Biso   1.000  C
  C269     1.0000 0.26721  0.86501  0.94760  Biso   1.000  C
  C270     1.0000 0.72611  0.79491  0.89818  Biso   1.000  C
  H203     1.0000 0.77643  0.83061  0.95971  Biso   1.000  H
  O266     1.0000 0.70851  0.81242  0.00022  Biso   1.000  O
  C271     1.0000 0.28922  0.83918  0.89171  Biso   1.000  C
  C272     1.0000 0.30812  0.85010  0.99530  Biso   1.000  C
  H204     1.0000 0.22991  0.85132  0.95859  Biso   1.000  H
  C273     1.0000 0.28922  0.83922  0.89171  Biso   1.000  C
  C274     1.0000 0.66080  0.78920  0.89171  Biso   1.000  C
  O267     1.0000 0.74972  0.81931  0.84798  Biso   1.000  O
  H205     1.0000 0.74400  0.75812  0.90309  Biso   1.000  H
  C275     1.0000 0.64992  0.80810  0.99530  Biso   1.000  C
  C276     1.0000 0.29489  0.77391  0.89818  Biso   1.000  C
  O268     1.0000 0.24852  0.85001  0.84449  Biso   1.000  O
  H206     1.0000 0.32580  0.85589  0.88310  Biso   1.000  H
  H207     1.0000 0.34479  0.86623  0.98600  Biso   1.000  H
  O269     1.0000 0.31240  0.79151  0.00022  Biso   1.000  O
  C277     1.0000 0.28691  0.87333  0.05218  Biso   1.000  C
  C278     1.0000 0.63501  0.76719  0.94760  Biso   1.000  C
  O270     1.0000 0.65001  0.74850  0.84449  Biso   1.000  O
  H208     1.0000 0.64413  0.82582  0.88310  Biso   1.000  H
  H209     1.0000 0.63379  0.84481  0.98600  Biso   1.000  H
  C279     1.0000 0.62670  0.78693  0.05218  Biso   1.000  C
  O271     1.0000 0.31929  0.75030  0.84798  Biso   1.000  O
  H210     1.0000 0.25810  0.75602  0.90309  Biso   1.000  H
  C280     1.0000 0.33189  0.76383  0.95070  Biso   1.000  C
  O272     1.0000 0.22941  0.85820  0.06339  Biso   1.000  O
  O273     1.0000 0.33000  0.86102  0.09269  Biso   1.000  O
  O274     1.0000 0.57571  0.76530  0.93799  Biso   1.000  O
  H211     1.0000 0.64870  0.72989  0.95859  Biso   1.000  H
  O275     1.0000 0.64182  0.72943  0.06339  Biso   1.000  O
  O276     1.0000 0.63900  0.83002  0.09269  Biso   1.000  O
  O277     1.0000 0.38779  0.77929  0.93769  Biso   1.000  O
  H212     1.0000 0.33059  0.72359  0.95971  Biso   1.000  H
  O278     1.0000 0.38779  0.77933  0.93769  Biso   1.000  O
  C281     1.0000 0.54971  0.71192  0.95101  Biso   1.000  C
  C282     1.0000 0.43022  0.73901  0.94540  Biso   1.000  C
  C283     1.0000 0.51233  0.69629  0.89930  Biso   1.000  C
  O279     1.0000 0.51481  0.71801  0.00039  Biso   1.000  O
  C284     1.0000 0.46411  0.73560  0.89021  Biso   1.000  C
  C285     1.0000 0.46902  0.75602  0.99522  Biso   1.000  C
  H213     1.0000 0.41321  0.70251  0.95450  Biso   1.000  H
  O280     1.0000 0.54790  0.69470  0.84681  Biso   1.000  O
  H214     1.0000 0.49553  0.65958  0.90748  Biso   1.000  H
  H215     1.0000 0.49553  0.65962  0.90748  Biso   1.000  H
  O281     1.0000 0.42980  0.71519  0.84418  Biso   1.000  O
  H216     1.0000 0.47801  0.77311  0.88021  Biso   1.000  H
  H217     1.0000 0.48272  0.79352  0.98509  Biso   1.000  H
  C286     1.0000 0.43920  0.76160  0.05348  Biso   1.000  C
  O282     1.0000 0.40812  0.71112  0.06158  Biso   1.000  O
  O283     1.0000 0.47700  0.77899  0.09700  Biso   1.000  O
  O284     1.0000 0.28481  0.57020  0.15582  Biso   1.000  O
  C287     1.0000 0.26440  0.53589  0.10979  Biso   1.000  C
  C288     1.0000 0.30371  0.48771  0.10070  Biso   1.000  C
  C289     1.0000 0.26104  0.56983  0.05460  Biso   1.000  C
  H218     1.0000 0.22693  0.52199  0.11979  Biso   1.000  H
  C290     1.0000 0.28808  0.45029  0.04899  Biso   1.000  C
  C291     1.0000 0.28813  0.45029  0.04899  Biso   1.000  C
  O285     1.0000 0.30530  0.45210  0.15319  Biso   1.000  O
  H219     1.0000 0.34042  0.50452  0.09252  Biso   1.000  H
  C292     1.0000 0.24403  0.53102  0.00478  Biso   1.000  C
  O286     1.0000 0.22071  0.61221  0.06231  Biso   1.000  O
  H220     1.0000 0.29753  0.58679  0.04550  Biso   1.000  H
  O287     1.0000 0.23470  0.42429  0.06201  Biso   1.000  O
  O288     1.0000 0.28204  0.48519  0.99961  Biso   1.000  O
  H221     1.0000 0.20652  0.51733  0.01491  Biso   1.000  H
  C293     1.0000 0.23840  0.56080  0.94648  Biso   1.000  C
  C294     1.0000 0.23621  0.66811  0.04930  Biso   1.000  C
  C295     1.0000 0.23281  0.36499  0.05240  Biso   1.000  C
  O289     1.0000 0.28892  0.59192  0.93838  Biso   1.000  O
  O290     1.0000 0.22101  0.52300  0.90300  Biso   1.000  O
  H222     1.0000 0.27641  0.66941  0.04029  Biso   1.000  H
  O291     1.0000 0.20853  0.68760  0.99978  Biso   1.000  O
  C296     1.0000 0.22609  0.70511  0.10178  Biso   1.000  C
  C297     1.0000 0.22613  0.70511  0.10178  Biso   1.000  C
  C298     1.0000 0.21080  0.33920  0.10829  Biso   1.000  C
  C299     1.0000 0.19190  0.35012  0.00470  Biso   1.000  C
  H223     1.0000 0.27011  0.35130  0.04141  Biso   1.000  H
  C300     1.0000 0.14990  0.69192  0.00470  Biso   1.000  C
  C301     1.0000 0.16082  0.71082  0.10829  Biso   1.000  C
  O292     1.0000 0.24970  0.68071  0.15198  Biso   1.000  O
  H224     1.0000 0.24403  0.74190  0.09691  Biso   1.000  H
  O293     1.0000 0.25150  0.34999  0.15551  Biso   1.000  O
  H225     1.0000 0.17422  0.35592  0.11690  Biso   1.000  H
  C302     1.0000 0.20509  0.27389  0.10178  Biso   1.000  C
  C303     1.0000 0.20513  0.27389  0.10178  Biso   1.000  C
  C304     1.0000 0.21311  0.37330  0.94782  Biso   1.000  C
  O294     1.0000 0.18762  0.29149  0.99978  Biso   1.000  O
  H226     1.0000 0.15519  0.36621  0.01400  Biso   1.000  H
  H227     1.0000 0.15524  0.36621  0.01400  Biso   1.000  H
  H228     1.0000 0.13381  0.65521  0.01400  Biso   1.000  H
  C305     1.0000 0.12672  0.71309  0.94782  Biso   1.000  C
  C306     1.0000 0.13503  0.73279  0.05240  Biso   1.000  C
  H229     1.0000 0.14411  0.67420  0.11690  Biso   1.000  H
  O295     1.0000 0.15003  0.75152  0.15551  Biso   1.000  O
  C307     1.0000 0.16809  0.26381  0.04930  Biso   1.000  C
  O296     1.0000 0.18069  0.25028  0.15198  Biso   1.000  O
  C308     1.0000 0.16813  0.26381  0.04930  Biso   1.000  C
  O297     1.0000 0.18073  0.25028  0.15198  Biso   1.000  O
  H230     1.0000 0.24193  0.25600  0.09691  Biso   1.000  H
  O298     1.0000 0.27061  0.35818  0.93661  Biso   1.000  O
  O299     1.0000 0.17002  0.36100  0.90731  Biso   1.000  O
  O300     1.0000 0.14180  0.77059  0.93661  Biso   1.000  O
  O301     1.0000 0.13898  0.67000  0.90731  Biso   1.000  O
  O302     1.0000 0.07573  0.73472  0.06201  Biso   1.000  O
  H231     1.0000 0.14873  0.77013  0.04141  Biso   1.000  H
  O303     1.0000 0.11218  0.27931  0.06231  Biso   1.000  O
  O304     1.0000 0.11223  0.27931  0.06231  Biso   1.000  O
  H232     1.0000 0.16943  0.22361  0.04029  Biso   1.000  H
  C309     1.0000 0.04973  0.78811  0.04899  Biso   1.000  C
  C310     1.0000 0.06981  0.23899  0.05460  Biso   1.000  C
  C311     1.0000 0.01231  0.80373  0.10070  Biso   1.000  C
  O305     1.0000 0.01478  0.78202  0.99961  Biso   1.000  O
  O306     1.0000 0.01483  0.78202  0.99961  Biso   1.000  O
  C312     1.0000 0.03591  0.23558  0.10979  Biso   1.000  C
  C313     1.0000 0.03100  0.25600  0.00478  Biso   1.000  C
  H233     1.0000 0.08682  0.20249  0.04550  Biso   1.000  H
  C314     1.0000 0.96409  0.76442  0.10979  Biso   1.000  C
  H234     1.0000 0.99551  0.84040  0.09252  Biso   1.000  H
  C315     1.0000 0.96413  0.76442  0.10979  Biso   1.000  C
  O307     1.0000 0.04788  0.80533  0.15319  Biso   1.000  O
  O308     1.0000 0.04792  0.80533  0.15319  Biso   1.000  O
  C316     1.0000 0.96900  0.74400  0.00478  Biso   1.000  C
  H235     1.0000 0.02201  0.27309  0.11979  Biso   1.000  H
  C317     1.0000 0.98769  0.19631  0.10070  Biso   1.000  C
  O309     1.0000 0.07023  0.21521  0.15582  Biso   1.000  O
  H236     1.0000 0.01730  0.29350  0.01491  Biso   1.000  H
  O310     1.0000 0.98522  0.21798  0.99961  Biso   1.000  O
  C318     1.0000 0.06082  0.26162  0.94648  Biso   1.000  C
  C319     1.0000 0.93019  0.76101  0.05460  Biso   1.000  C
  O311     1.0000 0.92982  0.78483  0.15582  Biso   1.000  O
  H237     1.0000 0.97799  0.72691  0.11979  Biso   1.000  H
  C320     1.0000 0.93922  0.73842  0.94648  Biso   1.000  C
  H238     1.0000 0.98270  0.70650  0.01491  Biso   1.000  H
  H239     1.0000 0.00449  0.15960  0.09252  Biso   1.000  H
  C321     1.0000 0.95031  0.21189  0.04899  Biso   1.000  C
  O312     1.0000 0.95212  0.19472  0.15319  Biso   1.000  O
  O313     1.0000 0.09190  0.21110  0.93838  Biso   1.000  O
  O314     1.0000 0.02302  0.27901  0.90300  Biso   1.000  O
  H240     1.0000 0.91318  0.79751  0.04550  Biso   1.000  H
  O315     1.0000 0.88782  0.72069  0.06231  Biso   1.000  O
  H241     1.0000 0.91323  0.79751  0.04550  Biso   1.000  H
  O316     1.0000 0.90810  0.78890  0.93838  Biso   1.000  O
  O317     1.0000 0.97703  0.72103  0.90300  Biso   1.000  O
  O318     1.0000 0.92431  0.26532  0.06201  Biso   1.000  O
  C322     1.0000 0.83191  0.73619  0.04930  Biso   1.000  C
  C323     1.0000 0.86501  0.26721  0.05240  Biso   1.000  C
  O319     1.0000 0.81242  0.70851  0.99978  Biso   1.000  O
  C324     1.0000 0.79491  0.72611  0.10178  Biso   1.000  C
  H242     1.0000 0.83061  0.77643  0.04029  Biso   1.000  H
  C325     1.0000 0.83918  0.28922  0.10829  Biso   1.000  C
  C326     1.0000 0.85010  0.30812  0.00470  Biso   1.000  C
  H243     1.0000 0.85132  0.22991  0.04141  Biso   1.000  H
  C327     1.0000 0.83922  0.28922  0.10829  Biso   1.000  C
  C328     1.0000 0.80810  0.64992  0.00470  Biso   1.000  C
  C329     1.0000 0.78920  0.66080  0.10829  Biso   1.000  C
  O320     1.0000 0.81931  0.74972  0.15198  Biso   1.000  O
  H244     1.0000 0.75812  0.74400  0.09691  Biso   1.000  H
  C330     1.0000 0.77391  0.29489  0.10178  Biso   1.000  C
  O321     1.0000 0.85001  0.24852  0.15551  Biso   1.000  O
  H245     1.0000 0.85589  0.32580  0.11690  Biso   1.000  H
  O322     1.0000 0.79151  0.31240  0.99978  Biso   1.000  O
  C331     1.0000 0.87333  0.28691  0.94782  Biso   1.000  C
  H246     1.0000 0.86623  0.34479  0.01400  Biso   1.000  H
  C332     1.0000 0.76719  0.63501  0.05240  Biso   1.000  C
  C333     1.0000 0.78693  0.62670  0.94782  Biso   1.000  C
  H247     1.0000 0.84481  0.63379  0.01400  Biso   1.000  H
  O323     1.0000 0.74850  0.65001  0.15551  Biso   1.000  O
  H248     1.0000 0.82582  0.64413  0.11690  Biso   1.000  H
  O324     1.0000 0.75030  0.31929  0.15198  Biso   1.000  O
  H249     1.0000 0.75602  0.25810  0.09691  Biso   1.000  H
  C334     1.0000 0.76383  0.33189  0.04930  Biso   1.000  C
  O325     1.0000 0.85820  0.22941  0.93661  Biso   1.000  O
  O326     1.0000 0.86102  0.33000  0.90731  Biso   1.000  O
  O327     1.0000 0.76530  0.57571  0.06201  Biso   1.000  O
  H250     1.0000 0.72989  0.64870  0.04141  Biso   1.000  H
  O328     1.0000 0.72943  0.64182  0.93661  Biso   1.000  O
  O329     1.0000 0.83002  0.63900  0.90731  Biso   1.000  O
  O330     1.0000 0.77929  0.38779  0.06231  Biso   1.000  O
  H251     1.0000 0.72359  0.33059  0.04029  Biso   1.000  H
  O331     1.0000 0.77933  0.38779  0.06231  Biso   1.000  O
  C335     1.0000 0.71192  0.54971  0.04899  Biso   1.000  C
  C336     1.0000 0.73901  0.43022  0.05460  Biso   1.000  C
  C337     1.0000 0.69629  0.51233  0.10070  Biso   1.000  C
  O332     1.0000 0.71801  0.51481  0.99961  Biso   1.000  O
  C338     1.0000 0.73560  0.46411  0.10979  Biso   1.000  C
  C339     1.0000 0.75602  0.46902  0.00478  Biso   1.000  C
  H252     1.0000 0.70251  0.41321  0.04550  Biso   1.000  H
  O333     1.0000 0.69470  0.54790  0.15319  Biso   1.000  O
  H253     1.0000 0.65958  0.49553  0.09252  Biso   1.000  H
  H254     1.0000 0.65962  0.49553  0.09252  Biso   1.000  H
  O334     1.0000 0.71519  0.42980  0.15582  Biso   1.000  O
  H255     1.0000 0.77311  0.47801  0.11979  Biso   1.000  H
  C340     1.0000 0.76160  0.43920  0.94648  Biso   1.000  C
  H256     1.0000 0.79352  0.48272  0.01491  Biso   1.000  H
  O335     1.0000 0.71112  0.40812  0.93838  Biso   1.000  O
  O336     1.0000 0.77899  0.47700  0.90300  Biso   1.000  O
  Ne1      1.0000 0.00664  0.49818  0.04447  Biso   1.000  Ne
  He1      1.0000 0.00000  0.50000  0.20362  Biso   1.000  He
  He2      1.0000 0.00002  0.49998  0.89574  Biso   1.000  He
  Ar1      1.0000 0.99988  0.50131  0.20362  Biso   1.000  Ar
  Ne2      1.0000 0.99373  0.49332  0.37759  Biso   1.000  Ne
  He3      1.0000 0.99999  0.50001  0.41183  Biso   1.000  He
  He4      1.0000 0.99998  0.49999  0.19975  Biso   1.000  He
  Ar2      1.0000 0.99997  0.50014  0.22252  Biso   1.000  Ar
  Ne3      1.0000 0.50249  0.98540  0.28383  Biso   1.000  Ne
  He5      1.0000 0.50000  0.00000  0.42940  Biso   1.000  He
  He6      1.0000 0.50001  0.00002  0.10164  Biso   1.000  He
  Ar3      1.0000 0.50015  0.99963  0.13615  Biso   1.000  Ar
  Ne4      1.0000 0.49332  0.99373  0.62240  Biso   1.000  Ne
  He7      1.0000 0.49999  0.99998  0.77748  Biso   1.000  He
  He8      1.0000 0.50001  0.99999  0.58092  Biso   1.000  He
  Ar4      1.0000 0.50002  1.00000  0.77748  Biso   1.000  Ar
  Ne5      1.0000 0.49818  0.00664  0.95553  Biso   1.000  Ne
  He9      1.0000 0.49998  0.00002  0.10866  Biso   1.000  He
  He10     1.0000 0.50000  0.00000  0.79709  Biso   1.000  He
  Ar5      1.0000 0.50131  0.99988  0.79637  Biso   1.000  Ar
  Ne6      1.0000 0.98540  0.50249  0.71617  Biso   1.000  Ne
  He11     1.0000 0.00002  0.50001  0.71927  Biso   1.000  He
  He12     1.0000 0.00000  0.50001  0.57063  Biso   1.000  He
  Ar6      1.0000 0.00002  0.50001  0.71927  Biso   1.000  Ar
