data_image0
_cell_length_a       17.804
_cell_length_b       17.804
_cell_length_c       47.626
_cell_angle_alpha    90
_cell_angle_beta     90
_cell_angle_gamma    120

_symmetry_space_group_name_H-M    "P 1"
_symmetry_int_tables_number       1

loop_
  _symmetry_equiv_pos_as_xyz
  'x, y, z'

loop_
  _atom_site_label
  _atom_site_occupancy
  _atom_site_fract_x
  _atom_site_fract_y
  _atom_site_fract_z
  _atom_site_thermal_displace_type
  _atom_site_B_iso_or_equiv
  _atom_site_type_symbol
  C1       1.0000 0.47507  0.84611  0.50886  Biso   1.000  C
  C2       1.0000 0.40190  0.75324  0.51079  Biso   1.000  C
  H1       1.0000 0.52357  0.84741  0.49832  Biso   1.000  H
  H2       1.0000 0.45468  0.88003  0.49813  Biso   1.000  H
  C3       1.0000 0.50646  0.88665  0.53509  Biso   1.000  C
  C4       1.0000 0.41979  0.68534  0.51117  Biso   1.000  C
  C5       1.0000 0.31464  0.73443  0.51117  Biso   1.000  C
  H3       1.0000 0.55245  0.94684  0.53223  Biso   1.000  H
  H4       1.0000 0.52978  0.85545  0.54563  Biso   1.000  H
  H5       1.0000 0.45900  0.88587  0.54584  Biso   1.000  H
  C6       1.0000 0.51287  0.70447  0.51140  Biso   1.000  C
  C7       1.0000 0.35138  0.59817  0.51079  Biso   1.000  C
  C8       1.0000 0.24675  0.64863  0.51079  Biso   1.000  C
  C9       1.0000 0.29559  0.80843  0.51140  Biso   1.000  C
  N1       1.0000 0.54446  0.71024  0.48369  Biso   1.000  N
  H6       1.0000 0.54978  0.75986  0.52144  Biso   1.000  H
  H7       1.0000 0.51630  0.65797  0.52173  Biso   1.000  H
  C10      1.0000 0.26559  0.58027  0.51117  Biso   1.000  C
  C11      1.0000 0.37110  0.52495  0.50886  Biso   1.000  C
  C12      1.0000 0.15387  0.62891  0.50886  Biso   1.000  C
  N2       1.0000 0.28979  0.83425  0.48369  Biso   1.000  N
  H8       1.0000 0.24018  0.78995  0.52144  Biso   1.000  H
  H9       1.0000 0.34207  0.85837  0.52173  Biso   1.000  H
  C13      1.0000 0.62626  0.72613  0.47860  Biso   1.000  C
  H10      1.0000 0.51019  0.70337  0.46943  Biso   1.000  H
  C14      1.0000 0.19156  0.48714  0.51140  Biso   1.000  C
  H11      1.0000 0.32387  0.47643  0.49832  Biso   1.000  H
  H12      1.0000 0.42537  0.54531  0.49813  Biso   1.000  H
  C15      1.0000 0.38017  0.49356  0.53509  Biso   1.000  C
  H13      1.0000 0.15254  0.67613  0.49832  Biso   1.000  H
  H14      1.0000 0.11994  0.57463  0.49813  Biso   1.000  H
  C16      1.0000 0.11339  0.61983  0.53509  Biso   1.000  C
  C17      1.0000 0.27387  0.90014  0.47860  Biso   1.000  C
  H15      1.0000 0.29663  0.80681  0.46943  Biso   1.000  H
  C18      1.0000 0.65627  0.73424  0.45112  Biso   1.000  C
  C19      1.0000 0.68055  0.72944  0.50006  Biso   1.000  C
  N3       1.0000 0.16577  0.45555  0.48369  Biso   1.000  N
  H16      1.0000 0.21006  0.45023  0.52144  Biso   1.000  H
  H17      1.0000 0.14168  0.48376  0.52173  Biso   1.000  H
  H18      1.0000 0.39433  0.44751  0.53223  Biso   1.000  H
  H19      1.0000 0.32565  0.47021  0.54563  Biso   1.000  H
  H20      1.0000 0.42688  0.54103  0.54584  Biso   1.000  H
  H21      1.0000 0.05315  0.60563  0.53223  Biso   1.000  H
  H22      1.0000 0.14456  0.67431  0.54563  Biso   1.000  H
  H23      1.0000 0.11419  0.57313  0.54584  Biso   1.000  H
  C20      1.0000 0.26579  0.92206  0.45112  Biso   1.000  C
  C21      1.0000 0.27055  0.95112  0.50006  Biso   1.000  C
  S1       1.0000 0.58797  0.73009  0.42254  Biso   1.000  S
  C22      1.0000 0.73550  0.74565  0.44593  Biso   1.000  C
  C23      1.0000 0.76037  0.73923  0.49488  Biso   1.000  C
  H24      1.0000 0.66168  0.72483  0.51902  Biso   1.000  H
  C24      1.0000 0.09988  0.37377  0.47860  Biso   1.000  C
  H25      1.0000 0.19320  0.48986  0.46943  Biso   1.000  H
  S2       1.0000 0.26995  0.85792  0.42254  Biso   1.000  S
  C25      1.0000 0.25435  0.98984  0.44593  Biso   1.000  C
  C26      1.0000 0.26081  0.02116  0.49488  Biso   1.000  C
  H26      1.0000 0.27515  0.93685  0.51902  Biso   1.000  H
  S3       1.0000 0.52457  0.60329  0.41078  Biso   1.000  S
  H27      1.0000 0.75699  0.75506  0.42733  Biso   1.000  H
  C27      1.0000 0.78667  0.74397  0.46813  Biso   1.000  C
  H28      1.0000 0.79685  0.74254  0.51004  Biso   1.000  H
  C28      1.0000 0.07796  0.34374  0.45112  Biso   1.000  C
  C29      1.0000 0.04883  0.31942  0.50006  Biso   1.000  C
  S4       1.0000 0.39672  0.92128  0.41078  Biso   1.000  S
  H29      1.0000 0.24497  0.00196  0.42733  Biso   1.000  H
  C30      1.0000 0.25610  0.04276  0.46813  Biso   1.000  C
  H30      1.0000 0.25747  0.05437  0.51004  Biso   1.000  H
  C31      1.0000 0.58869  0.59908  0.38221  Biso   1.000  C
  H31      1.0000 0.84021  0.74637  0.46422  Biso   1.000  H
  S5       1.0000 0.14213  0.41210  0.42254  Biso   1.000  S
  C32      1.0000 0.01017  0.26455  0.44593  Biso   1.000  C
  C33      1.0000 0.97884  0.23964  0.49488  Biso   1.000  C
  H32      1.0000 0.06319  0.33836  0.51902  Biso   1.000  H
  C34      1.0000 0.40091  0.98964  0.38221  Biso   1.000  C
  H33      1.0000 0.25368  0.09387  0.46422  Biso   1.000  H
  C35      1.0000 0.56679  0.60718  0.35472  Biso   1.000  C
  C36      1.0000 0.65653  0.58773  0.38739  Biso   1.000  C
  S6       1.0000 0.07872  0.47546  0.41078  Biso   1.000  S
  H34      1.0000 0.99805  0.24302  0.42733  Biso   1.000  H
  C37      1.0000 0.95725  0.21331  0.46813  Biso   1.000  C
  H35      1.0000 0.94564  0.20313  0.51004  Biso   1.000  H
  C38      1.0000 0.39280  0.95961  0.35472  Biso   1.000  C
  C39      1.0000 0.41231  0.06883  0.38739  Biso   1.000  C
  N4       1.0000 0.50091  0.62314  0.34964  Biso   1.000  N
  C40      1.0000 0.61777  0.60388  0.33326  Biso   1.000  C
  H36      1.0000 0.66863  0.57832  0.40600  Biso   1.000  H
  C41      1.0000 0.70939  0.58941  0.36520  Biso   1.000  C
  C42      1.0000 0.01042  0.41132  0.38221  Biso   1.000  C
  H37      1.0000 0.90618  0.15981  0.46422  Biso   1.000  H
  N5       1.0000 0.37691  0.87783  0.34964  Biso   1.000  N
  C43      1.0000 0.39607  0.01390  0.33326  Biso   1.000  C
  H38      1.0000 0.42169  0.09030  0.40600  Biso   1.000  H
  C44      1.0000 0.41060  0.12000  0.36520  Biso   1.000  C
  C45      1.0000 0.47509  0.62891  0.32192  Biso   1.000  C
  H39      1.0000 0.47351  0.63001  0.36390  Biso   1.000  H
  C46      1.0000 0.68780  0.59408  0.33845  Biso   1.000  C
  H40      1.0000 0.60350  0.60848  0.31430  Biso   1.000  H
  H41      1.0000 0.76054  0.58701  0.36911  Biso   1.000  H
  C47      1.0000 0.04039  0.43317  0.35472  Biso   1.000  C
  C48      1.0000 0.93118  0.34348  0.38739  Biso   1.000  C
  C49      1.0000 0.37108  0.84618  0.32192  Biso   1.000  C
  H42      1.0000 0.37003  0.84352  0.36390  Biso   1.000  H
  H43      1.0000 0.39152  0.99502  0.31430  Biso   1.000  H
  C50      1.0000 0.40589  0.09374  0.33845  Biso   1.000  C
  H44      1.0000 0.41303  0.17351  0.36911  Biso   1.000  H
  C51      1.0000 0.40111  0.64798  0.32216  Biso   1.000  C
  H45      1.0000 0.45661  0.57352  0.31189  Biso   1.000  H
  H46      1.0000 0.52502  0.67541  0.31159  Biso   1.000  H
  H47      1.0000 0.72097  0.59078  0.32329  Biso   1.000  H
  N6       1.0000 0.12224  0.49913  0.34964  Biso   1.000  N
  C52      1.0000 0.98609  0.38220  0.33326  Biso   1.000  C
  H48      1.0000 0.90970  0.33142  0.40600  Biso   1.000  H
  C53      1.0000 0.88003  0.29062  0.36520  Biso   1.000  C
  C54      1.0000 0.35201  0.75311  0.32216  Biso   1.000  C
  H49      1.0000 0.42649  0.88308  0.31189  Biso   1.000  H
  H50      1.0000 0.32461  0.84962  0.31159  Biso   1.000  H
  H51      1.0000 0.40917  0.13018  0.32329  Biso   1.000  H
  C55      1.0000 0.31531  0.58007  0.32253  Biso   1.000  C
  C56      1.0000 0.41990  0.73521  0.32253  Biso   1.000  C
  C57      1.0000 0.15381  0.52488  0.32192  Biso   1.000  C
  H52      1.0000 0.15648  0.52650  0.36390  Biso   1.000  H
  H53      1.0000 0.00499  0.39653  0.31430  Biso   1.000  H
  C58      1.0000 0.90633  0.31222  0.33845  Biso   1.000  C
  H54      1.0000 0.82651  0.23951  0.36911  Biso   1.000  H
  C59      1.0000 0.26478  0.68469  0.32253  Biso   1.000  C
  C60      1.0000 0.29561  0.48720  0.32447  Biso   1.000  C
  C61      1.0000 0.24687  0.59888  0.32216  Biso   1.000  C
  C62      1.0000 0.51284  0.80843  0.32447  Biso   1.000  C
  H55      1.0000 0.11692  0.54343  0.31189  Biso   1.000  H
  H56      1.0000 0.15039  0.47501  0.31159  Biso   1.000  H
  H57      1.0000 0.86979  0.27901  0.32329  Biso   1.000  H
  C63      1.0000 0.19162  0.70440  0.32447  Biso   1.000  C
  C64      1.0000 0.28650  0.44673  0.29824  Biso   1.000  C
  H58      1.0000 0.34282  0.48590  0.33501  Biso   1.000  H
  H59      1.0000 0.24130  0.45328  0.33520  Biso   1.000  H
  H60      1.0000 0.51410  0.85688  0.33501  Biso   1.000  H
  H61      1.0000 0.54672  0.78800  0.33520  Biso   1.000  H
  C65      1.0000 0.55331  0.83982  0.29824  Biso   1.000  C
  H62      1.0000 0.14307  0.65719  0.33501  Biso   1.000  H
  H63      1.0000 0.21197  0.75869  0.33520  Biso   1.000  H
  C66      1.0000 0.16021  0.71348  0.29824  Biso   1.000  C
  H64      1.0000 0.27227  0.38648  0.30110  Biso   1.000  H
  H65      1.0000 0.34102  0.47793  0.28770  Biso   1.000  H
  H66      1.0000 0.23982  0.44751  0.28749  Biso   1.000  H
  H67      1.0000 0.61348  0.88581  0.30110  Biso   1.000  H
  H68      1.0000 0.52209  0.86311  0.28770  Biso   1.000  H
  H69      1.0000 0.55251  0.79228  0.28749  Biso   1.000  H
  H70      1.0000 0.11418  0.72769  0.30110  Biso   1.000  H
  H71      1.0000 0.13690  0.65900  0.28770  Biso   1.000  H
  H72      1.0000 0.20771  0.76018  0.28749  Biso   1.000  H
  C67      1.0000 0.61983  0.50646  0.46491  Biso   1.000  C
  C68      1.0000 0.62896  0.47507  0.49114  Biso   1.000  C
  H73      1.0000 0.60564  0.55245  0.46777  Biso   1.000  H
  H74      1.0000 0.67433  0.52975  0.45437  Biso   1.000  H
  H75      1.0000 0.57312  0.45899  0.45416  Biso   1.000  H
  C69      1.0000 0.64863  0.40185  0.48919  Biso   1.000  C
  H76      1.0000 0.67614  0.52358  0.50166  Biso   1.000  H
  H77      1.0000 0.57460  0.45464  0.50187  Biso   1.000  H
  C70      1.0000 0.73442  0.41975  0.48881  Biso   1.000  C
  C71      1.0000 0.58022  0.31468  0.48881  Biso   1.000  C
  C72      1.0000 0.80845  0.51288  0.48860  Biso   1.000  C
  C73      1.0000 0.75326  0.35139  0.48919  Biso   1.000  C
  C74      1.0000 0.48714  0.29555  0.48860  Biso   1.000  C
  C75      1.0000 0.59817  0.24678  0.48919  Biso   1.000  C
  H78      1.0000 0.78995  0.54979  0.47856  Biso   1.000  H
  H79      1.0000 0.85833  0.51626  0.47827  Biso   1.000  H
  N7       1.0000 0.83424  0.54447  0.51631  Biso   1.000  N
  C76      1.0000 0.68537  0.26559  0.48881  Biso   1.000  C
  C77      1.0000 0.84610  0.37104  0.49114  Biso   1.000  C
  H80      1.0000 0.45023  0.24016  0.47856  Biso   1.000  H
  H81      1.0000 0.48371  0.34205  0.47827  Biso   1.000  H
  N8       1.0000 0.45555  0.28978  0.51631  Biso   1.000  N
  C78      1.0000 0.52491  0.15384  0.49114  Biso   1.000  C
  C79      1.0000 0.90013  0.62625  0.52137  Biso   1.000  C
  H82      1.0000 0.80681  0.51016  0.53057  Biso   1.000  H
  C80      1.0000 0.70448  0.19159  0.48860  Biso   1.000  C
  H83      1.0000 0.84747  0.32389  0.50166  Biso   1.000  H
  H84      1.0000 0.88007  0.42539  0.50187  Biso   1.000  H
  C81      1.0000 0.88668  0.38019  0.46491  Biso   1.000  C
  C82      1.0000 0.37374  0.27389  0.52137  Biso   1.000  C
  H85      1.0000 0.48982  0.29665  0.53057  Biso   1.000  H
  H86      1.0000 0.47641  0.15254  0.50166  Biso   1.000  H
  H87      1.0000 0.54533  0.11998  0.50187  Biso   1.000  H
  C83      1.0000 0.49355  0.11337  0.46491  Biso   1.000  C
  C84      1.0000 0.92205  0.65628  0.54888  Biso   1.000  C
  C85      1.0000 0.95117  0.68060  0.49994  Biso   1.000  C
  H88      1.0000 0.75983  0.21007  0.47856  Biso   1.000  H
  H89      1.0000 0.65794  0.14165  0.47827  Biso   1.000  H
  N9       1.0000 0.71022  0.16577  0.51631  Biso   1.000  N
  H90      1.0000 0.94686  0.39439  0.46777  Biso   1.000  H
  H91      1.0000 0.85542  0.32564  0.45437  Biso   1.000  H
  H92      1.0000 0.88588  0.42688  0.45416  Biso   1.000  H
  C86      1.0000 0.34374  0.26578  0.54888  Biso   1.000  C
  C87      1.0000 0.31946  0.27058  0.49994  Biso   1.000  C
  H93      1.0000 0.44756  0.05318  0.46777  Biso   1.000  H
  H94      1.0000 0.47023  0.14456  0.45437  Biso   1.000  H
  H95      1.0000 0.54101  0.11415  0.45416  Biso   1.000  H
  C88      1.0000 0.98984  0.73547  0.55405  Biso   1.000  C
  S7       1.0000 0.85788  0.58792  0.57746  Biso   1.000  S
  H96      1.0000 0.93682  0.66166  0.48096  Biso   1.000  H
  C89      1.0000 0.02117  0.76037  0.50512  Biso   1.000  C
  C90      1.0000 0.72614  0.09988  0.52137  Biso   1.000  C
  H97      1.0000 0.70334  0.19314  0.53057  Biso   1.000  H
  C91      1.0000 0.26451  0.25437  0.55405  Biso   1.000  C
  S8       1.0000 0.41204  0.26993  0.57746  Biso   1.000  S
  C92      1.0000 0.23964  0.26079  0.50512  Biso   1.000  C
  H98      1.0000 0.33833  0.27519  0.48096  Biso   1.000  H
  H99      1.0000 0.00196  0.75700  0.57267  Biso   1.000  H
  C93      1.0000 0.04276  0.78671  0.53187  Biso   1.000  C
  S9       1.0000 0.92129  0.52456  0.58922  Biso   1.000  S
  H100     1.0000 0.05436  0.79689  0.48996  Biso   1.000  H
  C94      1.0000 0.73422  0.07796  0.54888  Biso   1.000  C
  C95      1.0000 0.72943  0.04884  0.49994  Biso   1.000  C
  H101     1.0000 0.24302  0.24496  0.57267  Biso   1.000  H
  C96      1.0000 0.21334  0.25605  0.53187  Biso   1.000  C
  S10      1.0000 0.47544  0.39673  0.58922  Biso   1.000  S
  H102     1.0000 0.20316  0.25748  0.48996  Biso   1.000  H
  H103     1.0000 0.09386  0.84015  0.53576  Biso   1.000  H
  C97      1.0000 0.98959  0.58870  0.61777  Biso   1.000  C
  C98      1.0000 0.74566  0.01018  0.55405  Biso   1.000  C
  S11      1.0000 0.73006  0.14210  0.57746  Biso   1.000  S
  H104     1.0000 0.72486  0.06317  0.48096  Biso   1.000  H
  C99      1.0000 0.73926  0.97886  0.50512  Biso   1.000  C
  H105     1.0000 0.15985  0.25365  0.53576  Biso   1.000  H
  C100     1.0000 0.41129  0.40088  0.61777  Biso   1.000  C
  C101     1.0000 0.95959  0.56678  0.64528  Biso   1.000  C
  C102     1.0000 0.06883  0.65654  0.61261  Biso   1.000  C
  H106     1.0000 0.75504  0.99805  0.57267  Biso   1.000  H
  C103     1.0000 0.74396  0.95726  0.53187  Biso   1.000  C
  S12      1.0000 0.60329  0.07874  0.58922  Biso   1.000  S
  H107     1.0000 0.74254  0.94565  0.48996  Biso   1.000  H
  C104     1.0000 0.34347  0.41229  0.61261  Biso   1.000  C
  C105     1.0000 0.43322  0.39283  0.64528  Biso   1.000  C
  N10      1.0000 0.87777  0.50088  0.65034  Biso   1.000  N
  C106     1.0000 0.01392  0.61782  0.66672  Biso   1.000  C
  H108     1.0000 0.09031  0.66860  0.59400  Biso   1.000  H
  C107     1.0000 0.12003  0.70940  0.63478  Biso   1.000  C
  H109     1.0000 0.74633  0.90615  0.53576  Biso   1.000  H
  C108     1.0000 0.59910  0.01038  0.61777  Biso   1.000  C
  H110     1.0000 0.33138  0.42170  0.59400  Biso   1.000  H
  C109     1.0000 0.29062  0.41060  0.63478  Biso   1.000  C
  C110     1.0000 0.38221  0.39608  0.66672  Biso   1.000  C
  N11      1.0000 0.49910  0.37688  0.65034  Biso   1.000  N
  C111     1.0000 0.84625  0.47514  0.67808  Biso   1.000  C
  H111     1.0000 0.84353  0.47352  0.63610  Biso   1.000  H
  H112     1.0000 0.99501  0.60349  0.68570  Biso   1.000  H
  C112     1.0000 0.09373  0.68780  0.66155  Biso   1.000  C
  H113     1.0000 0.17350  0.76050  0.63089  Biso   1.000  H
  C113     1.0000 0.60721  0.04041  0.64528  Biso   1.000  C
  C114     1.0000 0.58770  0.93119  0.61261  Biso   1.000  C
  H114     1.0000 0.23953  0.41300  0.63089  Biso   1.000  H
  C115     1.0000 0.31221  0.40594  0.66155  Biso   1.000  C
  H115     1.0000 0.39648  0.39147  0.68570  Biso   1.000  H
  C116     1.0000 0.52492  0.37111  0.67808  Biso   1.000  C
  H116     1.0000 0.52650  0.37000  0.63610  Biso   1.000  H
  H117     1.0000 0.88309  0.45659  0.68809  Biso   1.000  H
  H118     1.0000 0.84962  0.52501  0.68841  Biso   1.000  H
  C117     1.0000 0.75314  0.40114  0.67784  Biso   1.000  C
  H119     1.0000 0.13022  0.72101  0.67669  Biso   1.000  H
  N12      1.0000 0.62310  0.12219  0.65034  Biso   1.000  N
  C118     1.0000 0.60393  0.98612  0.66672  Biso   1.000  C
  H120     1.0000 0.57832  0.90972  0.59400  Biso   1.000  H
  C119     1.0000 0.58941  0.88002  0.63478  Biso   1.000  C
  H121     1.0000 0.27901  0.40918  0.67669  Biso   1.000  H
  H122     1.0000 0.54340  0.42649  0.68809  Biso   1.000  H
  H123     1.0000 0.47499  0.32461  0.68841  Biso   1.000  H
  C120     1.0000 0.59887  0.35197  0.67784  Biso   1.000  C
  C121     1.0000 0.73523  0.31533  0.67747  Biso   1.000  C
  C122     1.0000 0.68472  0.41988  0.67747  Biso   1.000  C
  C123     1.0000 0.62890  0.15377  0.67808  Biso   1.000  C
  H124     1.0000 0.62998  0.15650  0.63610  Biso   1.000  H
  H125     1.0000 0.60848  0.00499  0.68570  Biso   1.000  H
  C124     1.0000 0.59412  0.90628  0.66155  Biso   1.000  C
  H126     1.0000 0.58704  0.82651  0.63089  Biso   1.000  H
  C125     1.0000 0.58011  0.26481  0.67747  Biso   1.000  C
  C126     1.0000 0.64800  0.24691  0.67784  Biso   1.000  C
  C127     1.0000 0.80839  0.29561  0.67553  Biso   1.000  C
  C128     1.0000 0.70440  0.51282  0.67553  Biso   1.000  C
  H127     1.0000 0.57349  0.11687  0.68809  Biso   1.000  H
  H128     1.0000 0.67540  0.15040  0.68841  Biso   1.000  H
  H129     1.0000 0.59080  0.86977  0.67669  Biso   1.000  H
  C129     1.0000 0.48722  0.19159  0.67553  Biso   1.000  C
  H130     1.0000 0.85694  0.34283  0.66499  Biso   1.000  H
  H131     1.0000 0.78804  0.24133  0.66480  Biso   1.000  H
  C130     1.0000 0.83985  0.28653  0.70176  Biso   1.000  C
  H132     1.0000 0.65719  0.51412  0.66499  Biso   1.000  H
  H133     1.0000 0.75871  0.54674  0.66480  Biso   1.000  H
  C131     1.0000 0.71351  0.55329  0.70176  Biso   1.000  C
  H134     1.0000 0.48588  0.14307  0.66499  Biso   1.000  H
  H135     1.0000 0.45329  0.21202  0.66480  Biso   1.000  H
  C132     1.0000 0.44670  0.16019  0.70176  Biso   1.000  C
  H136     1.0000 0.88583  0.27233  0.69890  Biso   1.000  H
  H137     1.0000 0.86310  0.34101  0.71230  Biso   1.000  H
  H138     1.0000 0.79232  0.23977  0.71249  Biso   1.000  H
  H139     1.0000 0.72771  0.61348  0.69890  Biso   1.000  H
  H140     1.0000 0.65899  0.52209  0.71230  Biso   1.000  H
  H141     1.0000 0.76019  0.55251  0.71249  Biso   1.000  H
  H142     1.0000 0.38653  0.11421  0.69890  Biso   1.000  H
  H143     1.0000 0.47791  0.13691  0.71230  Biso   1.000  H
  H144     1.0000 0.44750  0.20773  0.71249  Biso   1.000  H
  C133     1.0000 0.85830  0.03776  0.65779  Biso   1.000  C
  H145     1.0000 0.80359  0.99237  0.62103  Biso   1.000  H
  H146     1.0000 0.78086  0.06105  0.63442  Biso   1.000  H
  H147     1.0000 0.87439  0.09354  0.62084  Biso   1.000  H
  H148     1.0000 0.87434  0.09354  0.62084  Biso   1.000  H
  C134     1.0000 0.93146  0.01805  0.65586  Biso   1.000  C
  H149     1.0000 0.80981  0.99055  0.66833  Biso   1.000  H
  H150     1.0000 0.87865  0.09205  0.66852  Biso   1.000  H
  C135     1.0000 0.82689  0.04684  0.63157  Biso   1.000  C
  H151     1.0000 0.87870  0.09205  0.66852  Biso   1.000  H
  C136     1.0000 0.91361  0.93224  0.65548  Biso   1.000  C
  C137     1.0000 0.01869  0.08647  0.65548  Biso   1.000  C
  C138     1.0000 0.82049  0.85824  0.65525  Biso   1.000  C
  C139     1.0000 0.82044  0.85824  0.65525  Biso   1.000  C
  C140     1.0000 0.98194  0.91344  0.65586  Biso   1.000  C
  C141     1.0000 0.08658  0.06857  0.65586  Biso   1.000  C
  C142     1.0000 0.03776  0.17954  0.65525  Biso   1.000  C
  N13      1.0000 0.78888  0.83243  0.68299  Biso   1.000  N
  H152     1.0000 0.78357  0.87673  0.64524  Biso   1.000  H
  H153     1.0000 0.81707  0.80837  0.64492  Biso   1.000  H
  C143     1.0000 0.96229  0.82056  0.65779  Biso   1.000  C
  C144     1.0000 0.06779  0.98134  0.65548  Biso   1.000  C
  C145     1.0000 0.17944  0.14173  0.65779  Biso   1.000  C
  H154     1.0000 0.99129  0.18298  0.64492  Biso   1.000  H
  H155     1.0000 0.09317  0.21644  0.64524  Biso   1.000  H
  N14      1.0000 0.04355  0.21113  0.68299  Biso   1.000  N
  C146     1.0000 0.70707  0.76654  0.68805  Biso   1.000  C
  H156     1.0000 0.82321  0.85986  0.69722  Biso   1.000  H
  H157     1.0000 0.90798  0.78664  0.66852  Biso   1.000  H
  C147     1.0000 0.95320  0.78003  0.63157  Biso   1.000  C
  H158     1.0000 0.00950  0.81926  0.66833  Biso   1.000  H
  C148     1.0000 0.14177  0.96227  0.65525  Biso   1.000  C
  H159     1.0000 0.18078  0.19024  0.66833  Biso   1.000  H
  H160     1.0000 0.21340  0.12136  0.66852  Biso   1.000  H
  C149     1.0000 0.21996  0.17312  0.63157  Biso   1.000  C
  C150     1.0000 0.05948  0.29297  0.68805  Biso   1.000  C
  H161     1.0000 0.03671  0.17688  0.69722  Biso   1.000  H
  H162     1.0000 0.03668  0.17682  0.69722  Biso   1.000  H
  C151     1.0000 0.65277  0.71556  0.66659  Biso   1.000  C
  C152     1.0000 0.67707  0.74461  0.71555  Biso   1.000  C
  H163     1.0000 0.90650  0.78087  0.62084  Biso   1.000  H
  H164     1.0000 0.93895  0.71984  0.63442  Biso   1.000  H
  H165     1.0000 0.93900  0.71984  0.63442  Biso   1.000  H
  H166     1.0000 0.00767  0.81122  0.62103  Biso   1.000  H
  H167     1.0000 0.12326  0.90682  0.64524  Biso   1.000  H
  N15      1.0000 0.16756  0.95644  0.68299  Biso   1.000  N
  H168     1.0000 0.19170  0.00877  0.64492  Biso   1.000  H
  H169     1.0000 0.18878  0.19647  0.62103  Biso   1.000  H
  H170     1.0000 0.21919  0.12564  0.62084  Biso   1.000  H
  H171     1.0000 0.28022  0.21917  0.63442  Biso   1.000  H
  C153     1.0000 0.06756  0.32294  0.71555  Biso   1.000  C
  C154     1.0000 0.06276  0.34726  0.66659  Biso   1.000  C
  C155     1.0000 0.06281  0.34726  0.66659  Biso   1.000  C
  C156     1.0000 0.57301  0.64558  0.67178  Biso   1.000  C
  C157     1.0000 0.57293  0.64551  0.67178  Biso   1.000  C
  H172     1.0000 0.67170  0.72983  0.64763  Biso   1.000  H
  C158     1.0000 0.57298  0.64551  0.67178  Biso   1.000  C
  C159     1.0000 0.59786  0.67684  0.72072  Biso   1.000  C
  S13      1.0000 0.74540  0.80882  0.74411  Biso   1.000  S
  C160     1.0000 0.23347  0.94055  0.68805  Biso   1.000  C
  H173     1.0000 0.14019  0.96337  0.69722  Biso   1.000  H
  C161     1.0000 0.07896  0.40213  0.72072  Biso   1.000  C
  S14      1.0000 0.06340  0.25464  0.74411  Biso   1.000  S
  H174     1.0000 0.05817  0.32832  0.64763  Biso   1.000  H
  C162     1.0000 0.07259  0.42703  0.67178  Biso   1.000  C
  H175     1.0000 0.53647  0.61237  0.65664  Biso   1.000  H
  C163     1.0000 0.54668  0.62392  0.69855  Biso   1.000  C
  C164     1.0000 0.54662  0.62392  0.69855  Biso   1.000  C
  H176     1.0000 0.57635  0.66471  0.73932  Biso   1.000  H
  S15      1.0000 0.80878  0.74539  0.75587  Biso   1.000  S
  C165     1.0000 0.25537  0.93244  0.71555  Biso   1.000  C
  C166     1.0000 0.28450  0.93724  0.66659  Biso   1.000  C
  H177     1.0000 0.08837  0.42366  0.73932  Biso   1.000  H
  C167     1.0000 0.07728  0.45336  0.69855  Biso   1.000  C
  S16      1.0000 0.93660  0.19121  0.75587  Biso   1.000  S
  H178     1.0000 0.07591  0.46355  0.65664  Biso   1.000  H
  H179     1.0000 0.49316  0.57281  0.70243  Biso   1.000  H
  C168     1.0000 0.74464  0.67710  0.78445  Biso   1.000  C
  C169     1.0000 0.32318  0.92102  0.72072  Biso   1.000  C
  S17      1.0000 0.19125  0.93665  0.74411  Biso   1.000  S
  C170     1.0000 0.35448  0.92744  0.67178  Biso   1.000  C
  H180     1.0000 0.27018  0.94184  0.64763  Biso   1.000  H
  H181     1.0000 0.07971  0.50687  0.70243  Biso   1.000  H
  H182     1.0000 0.07965  0.50687  0.70243  Biso   1.000  H
  C171     1.0000 0.93244  0.25536  0.78445  Biso   1.000  C
  C172     1.0000 0.76653  0.70706  0.81195  Biso   1.000  C
  C173     1.0000 0.67682  0.59784  0.77928  Biso   1.000  C
  H183     1.0000 0.33527  0.91162  0.73932  Biso   1.000  H
  C174     1.0000 0.37607  0.92277  0.69855  Biso   1.000  C
  C175     1.0000 0.37613  0.92277  0.69855  Biso   1.000  C
  S18      1.0000 0.25462  0.06338  0.75587  Biso   1.000  S
  H184     1.0000 0.38765  0.92414  0.65664  Biso   1.000  H
  H185     1.0000 0.38770  0.92414  0.65664  Biso   1.000  H
  C176     1.0000 0.92103  0.32320  0.77928  Biso   1.000  C
  C177     1.0000 0.94055  0.23350  0.81195  Biso   1.000  C
  C178     1.0000 0.71552  0.65278  0.83339  Biso   1.000  C
  N16      1.0000 0.83241  0.78885  0.81701  Biso   1.000  N
  C179     1.0000 0.71557  0.65278  0.83339  Biso   1.000  C
  H186     1.0000 0.66473  0.57638  0.76066  Biso   1.000  H
  C180     1.0000 0.62393  0.54667  0.80145  Biso   1.000  C
  H187     1.0000 0.42716  0.92037  0.70243  Biso   1.000  H
  C181     1.0000 0.32295  0.06760  0.78445  Biso   1.000  C
  H188     1.0000 0.91162  0.33526  0.76066  Biso   1.000  H
  C182     1.0000 0.92278  0.37612  0.80145  Biso   1.000  C
  C183     1.0000 0.92269  0.37605  0.80145  Biso   1.000  C
  C184     1.0000 0.92275  0.37605  0.80145  Biso   1.000  C
  N17      1.0000 0.95647  0.16761  0.81701  Biso   1.000  N
  C185     1.0000 0.93723  0.28448  0.83339  Biso   1.000  C
  H189     1.0000 0.72984  0.67165  0.85237  Biso   1.000  H
  C186     1.0000 0.64558  0.57300  0.82820  Biso   1.000  C
  C187     1.0000 0.85824  0.82050  0.84473  Biso   1.000  C
  H190     1.0000 0.85985  0.82316  0.80275  Biso   1.000  H
  H191     1.0000 0.57286  0.49317  0.79757  Biso   1.000  H
  H192     1.0000 0.57280  0.49317  0.79757  Biso   1.000  H
  C188     1.0000 0.40218  0.07901  0.77928  Biso   1.000  C
  C189     1.0000 0.29295  0.05949  0.81195  Biso   1.000  C
  C190     1.0000 0.40215  0.07895  0.77928  Biso   1.000  C
  H193     1.0000 0.92033  0.42716  0.79757  Biso   1.000  H
  C191     1.0000 0.92745  0.35446  0.82820  Biso   1.000  C
  C192     1.0000 0.92740  0.35446  0.82820  Biso   1.000  C
  C193     1.0000 0.96227  0.14179  0.84473  Biso   1.000  C
  C194     1.0000 0.96221  0.14179  0.84473  Biso   1.000  C
  H194     1.0000 0.96337  0.14017  0.80275  Biso   1.000  H
  H195     1.0000 0.94189  0.27021  0.85237  Biso   1.000  H
  H196     1.0000 0.61238  0.53649  0.84336  Biso   1.000  H
  H197     1.0000 0.87674  0.78359  0.85476  Biso   1.000  H
  H198     1.0000 0.80833  0.81706  0.85506  Biso   1.000  H
  C195     1.0000 0.93224  0.91357  0.84452  Biso   1.000  C
  H199     1.0000 0.42367  0.08842  0.76066  Biso   1.000  H
  C196     1.0000 0.45331  0.07726  0.80145  Biso   1.000  C
  H200     1.0000 0.42364  0.08835  0.76066  Biso   1.000  H
  C197     1.0000 0.45337  0.07726  0.80145  Biso   1.000  C
  N18      1.0000 0.21114  0.04360  0.81701  Biso   1.000  N
  C198     1.0000 0.34728  0.06280  0.83339  Biso   1.000  C
  H201     1.0000 0.92412  0.38766  0.84336  Biso   1.000  H
  C199     1.0000 0.98138  0.06779  0.84452  Biso   1.000  C
  H202     1.0000 0.90686  0.12331  0.85476  Biso   1.000  H
  H203     1.0000 0.00872  0.19167  0.85506  Biso   1.000  H
  C200     1.0000 0.91343  0.98199  0.84414  Biso   1.000  C
  C201     1.0000 0.01802  0.93147  0.84414  Biso   1.000  C
  C202     1.0000 0.42705  0.07259  0.82820  Biso   1.000  C
  H204     1.0000 0.50680  0.07966  0.79757  Biso   1.000  H
  C203     1.0000 0.17952  0.03776  0.84473  Biso   1.000  C
  H205     1.0000 0.17683  0.03666  0.80275  Biso   1.000  H
  H206     1.0000 0.32836  0.05819  0.85237  Biso   1.000  H
  C204     1.0000 0.06852  0.08660  0.84414  Biso   1.000  C
  C205     1.0000 0.82055  0.96227  0.84219  Biso   1.000  C
  C206     1.0000 0.03772  0.85831  0.84219  Biso   1.000  C
  C207     1.0000 0.08647  0.01870  0.84452  Biso   1.000  C
  H207     1.0000 0.46353  0.07590  0.84336  Biso   1.000  H
  H208     1.0000 0.46358  0.07590  0.84336  Biso   1.000  H
  H209     1.0000 0.18295  0.99126  0.85506  Biso   1.000  H
  H210     1.0000 0.21646  0.09322  0.85476  Biso   1.000  H
  H211     1.0000 0.21643  0.09315  0.85476  Biso   1.000  H
  C208     1.0000 0.14175  0.17948  0.84219  Biso   1.000  C
  H212     1.0000 0.78662  0.90799  0.83146  Biso   1.000  H
  C209     1.0000 0.78001  0.95319  0.86841  Biso   1.000  C
  H213     1.0000 0.78667  0.90799  0.83146  Biso   1.000  H
  H214     1.0000 0.81928  0.00949  0.83167  Biso   1.000  H
  H215     1.0000 0.99055  0.80980  0.83167  Biso   1.000  H
  H216     1.0000 0.09205  0.87867  0.83146  Biso   1.000  H
  C210     1.0000 0.04682  0.82685  0.86841  Biso   1.000  C
  H217     1.0000 0.19025  0.18077  0.83167  Biso   1.000  H
  H218     1.0000 0.12136  0.21340  0.83146  Biso   1.000  H
  C211     1.0000 0.17319  0.22001  0.86841  Biso   1.000  C
  H219     1.0000 0.71983  0.93899  0.86556  Biso   1.000  H
  H220     1.0000 0.78087  0.90650  0.87916  Biso   1.000  H
  H221     1.0000 0.78081  0.90650  0.87916  Biso   1.000  H
  H222     1.0000 0.81124  0.00767  0.87895  Biso   1.000  H
  H223     1.0000 0.99233  0.80357  0.87895  Biso   1.000  H
  H224     1.0000 0.09357  0.87439  0.87916  Biso   1.000  H
  H225     1.0000 0.06107  0.78087  0.86556  Biso   1.000  H
  H226     1.0000 0.21913  0.28020  0.86556  Biso   1.000  H
  H227     1.0000 0.12565  0.21917  0.87916  Biso   1.000  H
  H228     1.0000 0.19643  0.18875  0.87895  Biso   1.000  H
  H229     1.0000 0.21918  0.28020  0.86556  Biso   1.000  H
  C212     1.0000 0.14172  0.96227  0.34219  Biso   1.000  C
  C213     1.0000 0.14177  0.96227  0.34219  Biso   1.000  C
  H230     1.0000 0.21916  0.93899  0.36556  Biso   1.000  H
  H231     1.0000 0.12562  0.90650  0.37916  Biso   1.000  H
  H232     1.0000 0.12568  0.90650  0.37916  Biso   1.000  H
  H233     1.0000 0.19643  0.00767  0.37897  Biso   1.000  H
  C214     1.0000 0.06856  0.98199  0.34414  Biso   1.000  C
  H234     1.0000 0.12137  0.90799  0.33146  Biso   1.000  H
  C215     1.0000 0.17312  0.95319  0.36843  Biso   1.000  C
  H235     1.0000 0.12132  0.90799  0.33146  Biso   1.000  H
  H236     1.0000 0.19026  0.00949  0.33167  Biso   1.000  H
  C216     1.0000 0.98133  0.91357  0.34452  Biso   1.000  C
  C217     1.0000 0.08647  0.06779  0.34452  Biso   1.000  C
  C218     1.0000 0.96226  0.82050  0.34473  Biso   1.000  C
  C219     1.0000 0.91344  0.93147  0.34414  Biso   1.000  C
  C220     1.0000 0.17952  0.14179  0.34473  Biso   1.000  C
  C221     1.0000 0.17958  0.14179  0.34473  Biso   1.000  C
  C222     1.0000 0.01808  0.08660  0.34414  Biso   1.000  C
  N19      1.0000 0.95643  0.78885  0.31701  Biso   1.000  N
  H237     1.0000 0.00873  0.81706  0.35506  Biso   1.000  H
  H238     1.0000 0.90685  0.78359  0.35476  Biso   1.000  H
  C223     1.0000 0.82058  0.85831  0.34219  Biso   1.000  C
  C224     1.0000 0.93223  0.01870  0.34452  Biso   1.000  C
  H239     1.0000 0.21645  0.12331  0.35476  Biso   1.000  H
  H240     1.0000 0.18295  0.19167  0.35506  Biso   1.000  H
  N20      1.0000 0.21119  0.16761  0.31701  Biso   1.000  N
  C225     1.0000 0.03773  0.17948  0.34219  Biso   1.000  C
  C226     1.0000 0.94053  0.70706  0.31195  Biso   1.000  C
  H241     1.0000 0.96336  0.82316  0.30275  Biso   1.000  H
  H242     1.0000 0.81924  0.80980  0.33167  Biso   1.000  H
  H243     1.0000 0.78662  0.87867  0.33146  Biso   1.000  H
  C227     1.0000 0.78003  0.82685  0.36843  Biso   1.000  C
  C228     1.0000 0.85824  0.03776  0.34473  Biso   1.000  C
  C229     1.0000 0.29295  0.23350  0.31195  Biso   1.000  C
  H244     1.0000 0.17680  0.14017  0.30275  Biso   1.000  H
  H245     1.0000 0.99052  0.18077  0.33167  Biso   1.000  H
  H246     1.0000 0.09204  0.21340  0.33146  Biso   1.000  H
  C230     1.0000 0.04687  0.22001  0.36843  Biso   1.000  C
  C231     1.0000 0.93246  0.67710  0.28445  Biso   1.000  C
  C232     1.0000 0.93726  0.65278  0.33339  Biso   1.000  C
  C233     1.0000 0.93721  0.65278  0.33339  Biso   1.000  C
  H247     1.0000 0.71985  0.78087  0.36556  Biso   1.000  H
  H248     1.0000 0.81124  0.80357  0.37897  Biso   1.000  H
  H249     1.0000 0.78088  0.87439  0.37916  Biso   1.000  H
  H250     1.0000 0.80831  0.99126  0.35506  Biso   1.000  H
  H251     1.0000 0.87676  0.09322  0.35476  Biso   1.000  H
  N21      1.0000 0.83246  0.04360  0.31701  Biso   1.000  N
  H252     1.0000 0.87673  0.09315  0.35476  Biso   1.000  H
  C234     1.0000 0.32292  0.25536  0.28445  Biso   1.000  C
  C235     1.0000 0.34725  0.28448  0.33339  Biso   1.000  C
  H253     1.0000 0.99232  0.18875  0.37897  Biso   1.000  H
  H254     1.0000 0.06107  0.28020  0.36556  Biso   1.000  H
  H255     1.0000 0.09352  0.21917  0.37916  Biso   1.000  H
  H256     1.0000 0.06102  0.28020  0.36556  Biso   1.000  H
  S19      1.0000 0.93661  0.74539  0.25587  Biso   1.000  S
  C236     1.0000 0.92103  0.59784  0.27928  Biso   1.000  C
  C237     1.0000 0.92743  0.57300  0.32822  Biso   1.000  C
  H257     1.0000 0.94181  0.67165  0.35237  Biso   1.000  H
  C238     1.0000 0.76655  0.05949  0.31195  Biso   1.000  C
  H258     1.0000 0.85983  0.03666  0.30275  Biso   1.000  H
  S20      1.0000 0.25462  0.19121  0.25587  Biso   1.000  S
  C239     1.0000 0.40216  0.32320  0.27928  Biso   1.000  C
  C240     1.0000 0.42700  0.35446  0.32822  Biso   1.000  C
  H259     1.0000 0.32838  0.27021  0.35237  Biso   1.000  H
  C241     1.0000 0.42706  0.35446  0.32822  Biso   1.000  C
  S21      1.0000 0.06342  0.80882  0.24413  Biso   1.000  S
  H260     1.0000 0.91164  0.57638  0.26066  Biso   1.000  H
  C242     1.0000 0.92274  0.54667  0.30145  Biso   1.000  C
  H261     1.0000 0.92417  0.53649  0.34336  Biso   1.000  H
  C243     1.0000 0.74465  0.06760  0.28445  Biso   1.000  C
  C244     1.0000 0.71552  0.06280  0.33339  Biso   1.000  C
  S22      1.0000 0.19124  0.25464  0.24413  Biso   1.000  S
  H262     1.0000 0.42364  0.33526  0.26066  Biso   1.000  H
  C245     1.0000 0.45334  0.37612  0.30145  Biso   1.000  C
  C246     1.0000 0.45330  0.37605  0.30145  Biso   1.000  C
  C247     1.0000 0.45339  0.37612  0.30145  Biso   1.000  C
  C248     1.0000 0.45336  0.37605  0.30145  Biso   1.000  C
  H263     1.0000 0.46355  0.38766  0.34336  Biso   1.000  H
  C249     1.0000 0.06754  0.74461  0.21555  Biso   1.000  C
  H264     1.0000 0.92031  0.49317  0.29757  Biso   1.000  H
  H265     1.0000 0.92036  0.49317  0.29757  Biso   1.000  H
  S23      1.0000 0.80876  0.06338  0.25587  Biso   1.000  S
  C250     1.0000 0.67680  0.07895  0.27928  Biso   1.000  C
  C251     1.0000 0.67689  0.07901  0.27928  Biso   1.000  C
  C252     1.0000 0.64554  0.07259  0.32822  Biso   1.000  C
  H266     1.0000 0.72984  0.05819  0.35237  Biso   1.000  H
  C253     1.0000 0.25538  0.32294  0.21555  Biso   1.000  C
  H267     1.0000 0.50683  0.42716  0.29757  Biso   1.000  H
  C254     1.0000 0.07898  0.67684  0.22072  Biso   1.000  C
  C255     1.0000 0.05946  0.76654  0.18805  Biso   1.000  C
  S24      1.0000 0.74540  0.93665  0.24413  Biso   1.000  S
  H268     1.0000 0.66474  0.08842  0.26066  Biso   1.000  H
  C256     1.0000 0.62395  0.07726  0.30145  Biso   1.000  C
  H269     1.0000 0.66471  0.08835  0.26066  Biso   1.000  H
  C257     1.0000 0.62389  0.07726  0.30145  Biso   1.000  C
  H270     1.0000 0.61237  0.07590  0.34336  Biso   1.000  H
  H271     1.0000 0.61232  0.07590  0.34336  Biso   1.000  H
  C258     1.0000 0.23349  0.29297  0.18805  Biso   1.000  C
  C259     1.0000 0.32317  0.40213  0.22072  Biso   1.000  C
  C260     1.0000 0.07724  0.62392  0.19855  Biso   1.000  C
  H272     1.0000 0.08837  0.66471  0.23932  Biso   1.000  H
  C261     1.0000 0.07729  0.62392  0.19855  Biso   1.000  C
  C262     1.0000 0.06279  0.71556  0.16661  Biso   1.000  C
  N22      1.0000 0.04360  0.83243  0.18299  Biso   1.000  N
  C263     1.0000 0.67707  0.93244  0.21555  Biso   1.000  C
  H273     1.0000 0.57286  0.07966  0.29757  Biso   1.000  H
  N23      1.0000 0.16757  0.21113  0.18299  Biso   1.000  N
  C264     1.0000 0.28450  0.34726  0.16661  Biso   1.000  C
  C265     1.0000 0.28445  0.34726  0.16661  Biso   1.000  C
  H274     1.0000 0.33529  0.42366  0.23932  Biso   1.000  H
  C266     1.0000 0.37609  0.45336  0.19855  Biso   1.000  C
  C267     1.0000 0.07256  0.64558  0.17178  Biso   1.000  C
  H275     1.0000 0.07965  0.57281  0.20243  Biso   1.000  H
  C268     1.0000 0.07253  0.64551  0.17178  Biso   1.000  C
  C269     1.0000 0.07262  0.64558  0.17178  Biso   1.000  C
  C270     1.0000 0.07259  0.64551  0.17178  Biso   1.000  C
  H276     1.0000 0.05818  0.72983  0.14763  Biso   1.000  H
  C271     1.0000 0.03775  0.85824  0.15527  Biso   1.000  C
  H277     1.0000 0.03665  0.85986  0.19722  Biso   1.000  H
  C272     1.0000 0.03780  0.85824  0.15527  Biso   1.000  C
  C273     1.0000 0.70707  0.94055  0.18805  Biso   1.000  C
  C274     1.0000 0.59790  0.92102  0.22072  Biso   1.000  C
  C275     1.0000 0.14178  0.17954  0.15527  Biso   1.000  C
  H278     1.0000 0.14014  0.17682  0.19722  Biso   1.000  H
  H279     1.0000 0.14023  0.17688  0.19722  Biso   1.000  H
  C276     1.0000 0.35444  0.42703  0.17178  Biso   1.000  C
  H280     1.0000 0.27015  0.32832  0.14763  Biso   1.000  H
  H281     1.0000 0.42716  0.50687  0.20243  Biso   1.000  H
  H282     1.0000 0.42722  0.50687  0.20243  Biso   1.000  H
  H283     1.0000 0.07590  0.61237  0.15664  Biso   1.000  H
  H284     1.0000 0.09316  0.87673  0.14524  Biso   1.000  H
  C277     1.0000 0.01869  0.93224  0.15548  Biso   1.000  C
  H285     1.0000 0.99130  0.80837  0.14494  Biso   1.000  H
  N24      1.0000 0.78888  0.95644  0.18299  Biso   1.000  N
  C278     1.0000 0.65273  0.93724  0.16661  Biso   1.000  C
  H286     1.0000 0.57634  0.91162  0.23932  Biso   1.000  H
  C279     1.0000 0.54671  0.92277  0.19855  Biso   1.000  C
  C280     1.0000 0.54665  0.92277  0.19855  Biso   1.000  C
  C281     1.0000 0.06778  0.08647  0.15548  Biso   1.000  C
  H287     1.0000 0.12327  0.21644  0.14524  Biso   1.000  H
  H288     1.0000 0.19169  0.18298  0.14494  Biso   1.000  H
  H289     1.0000 0.38769  0.46355  0.15664  Biso   1.000  H
  C282     1.0000 0.93150  0.91344  0.15586  Biso   1.000  C
  C283     1.0000 0.08659  0.01805  0.15586  Biso   1.000  C
  C284     1.0000 0.82050  0.96227  0.15527  Biso   1.000  C
  H290     1.0000 0.82318  0.96337  0.19722  Biso   1.000  H
  C285     1.0000 0.57297  0.92744  0.17178  Biso   1.000  C
  H291     1.0000 0.67166  0.94184  0.14763  Biso   1.000  H
  H292     1.0000 0.49321  0.92037  0.20243  Biso   1.000  H
  C286     1.0000 0.98199  0.06857  0.15586  Biso   1.000  C
  C287     1.0000 0.91355  0.98134  0.15548  Biso   1.000  C
  C288     1.0000 0.85827  0.82056  0.15779  Biso   1.000  C
  C289     1.0000 0.17946  0.03776  0.15779  Biso   1.000  C
  C290     1.0000 0.17952  0.03776  0.15779  Biso   1.000  C
  H293     1.0000 0.78356  0.90682  0.14524  Biso   1.000  H
  H294     1.0000 0.81707  0.00877  0.14494  Biso   1.000  H
  H295     1.0000 0.53649  0.92414  0.15664  Biso   1.000  H
  H296     1.0000 0.53643  0.92414  0.15664  Biso   1.000  H
  C291     1.0000 0.96229  0.14173  0.15779  Biso   1.000  C
  H297     1.0000 0.80977  0.81926  0.16833  Biso   1.000  H
  H298     1.0000 0.87866  0.78664  0.16854  Biso   1.000  H
  C292     1.0000 0.82688  0.78003  0.13157  Biso   1.000  C
  H299     1.0000 0.18079  0.99055  0.16833  Biso   1.000  H
  H300     1.0000 0.21340  0.09205  0.16854  Biso   1.000  H
  H301     1.0000 0.21335  0.09205  0.16854  Biso   1.000  H
  C293     1.0000 0.22001  0.04684  0.13157  Biso   1.000  C
  H302     1.0000 0.90796  0.12136  0.16854  Biso   1.000  H
  C294     1.0000 0.95316  0.17312  0.13157  Biso   1.000  C
  H303     1.0000 0.00947  0.19024  0.16833  Biso   1.000  H
  H304     1.0000 0.78089  0.71984  0.13442  Biso   1.000  H
  H305     1.0000 0.80356  0.81122  0.12103  Biso   1.000  H
  H306     1.0000 0.87437  0.78087  0.12084  Biso   1.000  H
  H307     1.0000 0.78084  0.71984  0.13442  Biso   1.000  H
  H308     1.0000 0.18878  0.99237  0.12103  Biso   1.000  H
  H309     1.0000 0.28019  0.06105  0.13442  Biso   1.000  H
  H310     1.0000 0.21915  0.09354  0.12084  Biso   1.000  H
  H311     1.0000 0.21920  0.09354  0.12084  Biso   1.000  H
  H312     1.0000 0.93900  0.21917  0.13442  Biso   1.000  H
  H313     1.0000 0.90651  0.12564  0.12084  Biso   1.000  H
  H314     1.0000 0.00769  0.19647  0.12103  Biso   1.000  H
  C295     1.0000 0.55327  0.71348  0.79824  Biso   1.000  C
  C296     1.0000 0.51278  0.70440  0.82447  Biso   1.000  C
  H315     1.0000 0.61351  0.72769  0.80110  Biso   1.000  H
  H316     1.0000 0.52210  0.65900  0.78770  Biso   1.000  H
  H317     1.0000 0.55247  0.76018  0.78749  Biso   1.000  H
  C297     1.0000 0.41991  0.68469  0.82253  Biso   1.000  C
  H318     1.0000 0.51411  0.65719  0.83499  Biso   1.000  H
  H319     1.0000 0.54672  0.75869  0.83520  Biso   1.000  H
  C298     1.0000 0.35201  0.59888  0.82213  Biso   1.000  C
  C299     1.0000 0.40110  0.75311  0.82213  Biso   1.000  C
  C300     1.0000 0.26476  0.58007  0.82253  Biso   1.000  C
  C301     1.0000 0.37107  0.52488  0.82192  Biso   1.000  C
  C302     1.0000 0.31531  0.73521  0.82253  Biso   1.000  C
  C303     1.0000 0.47510  0.84618  0.82192  Biso   1.000  C
  C304     1.0000 0.19159  0.48720  0.82447  Biso   1.000  C
  C305     1.0000 0.24687  0.64798  0.82213  Biso   1.000  C
  H320     1.0000 0.42651  0.54343  0.81189  Biso   1.000  H
  H321     1.0000 0.32462  0.47501  0.81159  Biso   1.000  H
  N25      1.0000 0.37690  0.49913  0.84964  Biso   1.000  N
  C306     1.0000 0.29559  0.80843  0.82447  Biso   1.000  C
  H322     1.0000 0.45659  0.88308  0.81189  Biso   1.000  H
  H323     1.0000 0.52501  0.84962  0.81159  Biso   1.000  H
  N26      1.0000 0.50092  0.87783  0.84964  Biso   1.000  N
  C307     1.0000 0.16023  0.44673  0.79824  Biso   1.000  C
  H324     1.0000 0.14309  0.48590  0.83499  Biso   1.000  H
  H325     1.0000 0.21198  0.45328  0.83520  Biso   1.000  H
  C308     1.0000 0.15382  0.62891  0.82192  Biso   1.000  C
  C309     1.0000 0.39278  0.43317  0.85472  Biso   1.000  C
  H326     1.0000 0.37003  0.52650  0.86390  Biso   1.000  H
  H327     1.0000 0.34279  0.85688  0.83499  Biso   1.000  H
  H328     1.0000 0.24128  0.78800  0.83520  Biso   1.000  H
  C310     1.0000 0.28651  0.83982  0.79824  Biso   1.000  C
  C311     1.0000 0.56681  0.95961  0.85472  Biso   1.000  C
  H329     1.0000 0.47349  0.84352  0.86390  Biso   1.000  H
  H330     1.0000 0.11421  0.38648  0.80110  Biso   1.000  H
  H331     1.0000 0.13691  0.47793  0.78770  Biso   1.000  H
  H332     1.0000 0.20769  0.44751  0.78749  Biso   1.000  H
  H333     1.0000 0.11691  0.57352  0.81189  Biso   1.000  H
  H334     1.0000 0.15039  0.67541  0.81159  Biso   1.000  H
  N27      1.0000 0.12223  0.62314  0.84964  Biso   1.000  N
  C312     1.0000 0.40090  0.41132  0.88221  Biso   1.000  C
  C313     1.0000 0.39611  0.38220  0.83326  Biso   1.000  C
  H335     1.0000 0.27232  0.88581  0.80110  Biso   1.000  H
  H336     1.0000 0.34101  0.86311  0.78770  Biso   1.000  H
  H337     1.0000 0.23977  0.79228  0.78749  Biso   1.000  H
  C314     1.0000 0.58873  0.98964  0.88221  Biso   1.000  C
  C315     1.0000 0.61782  0.01390  0.83326  Biso   1.000  C
  C316     1.0000 0.04039  0.60718  0.85472  Biso   1.000  C
  H338     1.0000 0.15650  0.63001  0.86390  Biso   1.000  H
  C317     1.0000 0.41230  0.34348  0.88739  Biso   1.000  C
  S25      1.0000 0.39674  0.47546  0.91078  Biso   1.000  S
  C318     1.0000 0.40588  0.31222  0.83845  Biso   1.000  C
  H339     1.0000 0.39154  0.39653  0.81430  Biso   1.000  H
  S26      1.0000 0.52456  0.92128  0.91078  Biso   1.000  S
  C319     1.0000 0.65652  0.06883  0.88739  Biso   1.000  C
  H340     1.0000 0.60350  0.99502  0.81430  Biso   1.000  H
  C320     1.0000 0.68785  0.09374  0.83845  Biso   1.000  C
  C321     1.0000 0.01039  0.59908  0.88221  Biso   1.000  C
  C322     1.0000 0.98611  0.60388  0.83326  Biso   1.000  C
  H341     1.0000 0.42172  0.33142  0.90600  Biso   1.000  H
  C323     1.0000 0.41059  0.29062  0.86520  Biso   1.000  C
  S27      1.0000 0.26997  0.41210  0.92254  Biso   1.000  S
  H342     1.0000 0.40922  0.27901  0.82329  Biso   1.000  H
  S28      1.0000 0.58797  0.85792  0.92254  Biso   1.000  S
  H343     1.0000 0.66860  0.09030  0.90600  Biso   1.000  H
  C324     1.0000 0.70941  0.12000  0.86520  Biso   1.000  C
  H344     1.0000 0.72101  0.13018  0.82329  Biso   1.000  H
  S29      1.0000 0.07872  0.60329  0.91078  Biso   1.000  S
  C325     1.0000 0.93119  0.58773  0.88739  Biso   1.000  C
  H345     1.0000 0.00498  0.60848  0.81430  Biso   1.000  H
  C326     1.0000 0.90629  0.59408  0.83845  Biso   1.000  C
  H346     1.0000 0.41301  0.23951  0.86908  Biso   1.000  H
  C327     1.0000 0.26578  0.34374  0.95110  Biso   1.000  C
  C328     1.0000 0.65627  0.92206  0.95110  Biso   1.000  C
  H347     1.0000 0.76048  0.17351  0.86908  Biso   1.000  H
  S30      1.0000 0.14212  0.73009  0.92254  Biso   1.000  S
  H348     1.0000 0.90970  0.57832  0.90600  Biso   1.000  H
  C329     1.0000 0.88002  0.58941  0.86520  Biso   1.000  C
  H349     1.0000 0.86981  0.59078  0.82329  Biso   1.000  H
  C330     1.0000 0.25438  0.26455  0.94593  Biso   1.000  C
  C331     1.0000 0.27389  0.37377  0.97860  Biso   1.000  C
  C332     1.0000 0.73548  0.98984  0.94593  Biso   1.000  C
  C333     1.0000 0.62627  0.90014  0.97860  Biso   1.000  C
  C334     1.0000 0.07797  0.73424  0.95110  Biso   1.000  C
  H350     1.0000 0.82648  0.58701  0.86908  Biso   1.000  H
  H351     1.0000 0.24496  0.24302  0.92733  Biso   1.000  H
  C335     1.0000 0.25606  0.21331  0.96813  Biso   1.000  C
  N28      1.0000 0.28978  0.45555  0.98369  Biso   1.000  N
  C336     1.0000 0.27058  0.31942  0.00006  Biso   1.000  C
  H352     1.0000 0.75699  0.00196  0.92733  Biso   1.000  H
  C337     1.0000 0.78666  0.04276  0.96813  Biso   1.000  C
  N29      1.0000 0.54445  0.83425  0.98369  Biso   1.000  N
  C338     1.0000 0.68057  0.95112  0.00006  Biso   1.000  C
  C339     1.0000 0.01015  0.74565  0.94593  Biso   1.000  C
  C340     1.0000 0.09987  0.72613  0.97860  Biso   1.000  C
  H353     1.0000 0.25363  0.15981  0.96422  Biso   1.000  H
  C341     1.0000 0.26080  0.23964  0.99488  Biso   1.000  C
  H354     1.0000 0.29666  0.48986  0.96943  Biso   1.000  H
  C342     1.0000 0.29558  0.48714  0.01140  Biso   1.000  C
  H355     1.0000 0.27516  0.33836  0.01902  Biso   1.000  H
  H356     1.0000 0.84018  0.09387  0.96422  Biso   1.000  H
  C343     1.0000 0.76036  0.02116  0.99488  Biso   1.000  C
  H357     1.0000 0.51018  0.80681  0.96943  Biso   1.000  H
  C344     1.0000 0.51284  0.80843  0.01140  Biso   1.000  C
  H358     1.0000 0.66170  0.93685  0.01902  Biso   1.000  H
  H359     1.0000 0.99806  0.75506  0.92733  Biso   1.000  H
  C345     1.0000 0.95730  0.74397  0.96813  Biso   1.000  C
  N30      1.0000 0.16578  0.71024  0.98369  Biso   1.000  N
  C346     1.0000 0.04889  0.72944  0.00006  Biso   1.000  C
  H360     1.0000 0.25748  0.20313  0.01004  Biso   1.000  H
  H361     1.0000 0.24017  0.45023  0.02142  Biso   1.000  H
  H362     1.0000 0.34208  0.48376  0.02173  Biso   1.000  H
  C347     1.0000 0.31468  0.58027  0.01117  Biso   1.000  C
  H363     1.0000 0.79690  0.05437  0.01004  Biso   1.000  H
  C348     1.0000 0.41979  0.73443  0.01117  Biso   1.000  C
  H364     1.0000 0.54977  0.78995  0.02142  Biso   1.000  H
  H365     1.0000 0.51630  0.85837  0.02173  Biso   1.000  H
  H366     1.0000 0.90615  0.74637  0.96422  Biso   1.000  H
  C349     1.0000 0.97886  0.73923  0.99488  Biso   1.000  C
  H367     1.0000 0.19318  0.70337  0.96943  Biso   1.000  H
  C350     1.0000 0.19160  0.70447  0.01140  Biso   1.000  C
  H368     1.0000 0.06316  0.72483  0.01902  Biso   1.000  H
  C351     1.0000 0.24679  0.59817  0.01079  Biso   1.000  C
  C352     1.0000 0.40188  0.64863  0.01079  Biso   1.000  C
  C353     1.0000 0.35134  0.75324  0.01079  Biso   1.000  C
  H369     1.0000 0.94569  0.74254  0.01004  Biso   1.000  H
  H370     1.0000 0.21008  0.75986  0.02142  Biso   1.000  H
  H371     1.0000 0.14167  0.65797  0.02173  Biso   1.000  H
  C354     1.0000 0.26555  0.68534  0.01117  Biso   1.000  C
  C355     1.0000 0.15385  0.52495  0.00886  Biso   1.000  C
  C356     1.0000 0.47504  0.62891  0.00886  Biso   1.000  C
  C357     1.0000 0.37105  0.84611  0.00886  Biso   1.000  C
  H372     1.0000 0.15256  0.47643  0.99832  Biso   1.000  H
  H373     1.0000 0.11994  0.54531  0.99813  Biso   1.000  H
  C358     1.0000 0.11338  0.49356  0.03509  Biso   1.000  C
  H374     1.0000 0.52358  0.67613  0.99832  Biso   1.000  H
  H375     1.0000 0.45469  0.57463  0.99813  Biso   1.000  H
  C359     1.0000 0.50644  0.61983  0.03509  Biso   1.000  C
  H376     1.0000 0.32384  0.84741  0.99832  Biso   1.000  H
  H377     1.0000 0.42536  0.88003  0.99813  Biso   1.000  H
  C360     1.0000 0.38019  0.88665  0.03509  Biso   1.000  C
  H378     1.0000 0.05317  0.44751  0.03223  Biso   1.000  H
  H379     1.0000 0.14456  0.47021  0.04563  Biso   1.000  H
  H380     1.0000 0.11415  0.54103  0.04584  Biso   1.000  H
  H381     1.0000 0.55248  0.60563  0.03223  Biso   1.000  H
  H382     1.0000 0.52975  0.67431  0.04563  Biso   1.000  H
  H383     1.0000 0.45894  0.57313  0.04584  Biso   1.000  H
  H384     1.0000 0.39439  0.94684  0.03223  Biso   1.000  H
  H385     1.0000 0.32567  0.85545  0.04563  Biso   1.000  H
  H386     1.0000 0.42687  0.88587  0.04584  Biso   1.000  H
  C361     1.0000 0.59412  0.68780  0.16155  Biso   1.000  C
  C362     1.0000 0.60390  0.61782  0.16674  Biso   1.000  C
  C363     1.0000 0.58942  0.70940  0.13478  Biso   1.000  C
  H387     1.0000 0.59079  0.72101  0.17669  Biso   1.000  H
  C364     1.0000 0.60719  0.56678  0.14528  Biso   1.000  C
  H388     1.0000 0.60847  0.60349  0.18570  Biso   1.000  H
  C365     1.0000 0.58771  0.65654  0.11261  Biso   1.000  C
  H389     1.0000 0.58700  0.76050  0.13089  Biso   1.000  H
  N31      1.0000 0.62311  0.50088  0.15036  Biso   1.000  N
  C366     1.0000 0.59911  0.58870  0.11777  Biso   1.000  C
  H390     1.0000 0.57829  0.66860  0.09400  Biso   1.000  H
  C367     1.0000 0.62894  0.47514  0.17808  Biso   1.000  C
  H391     1.0000 0.63004  0.47352  0.13610  Biso   1.000  H
  S31      1.0000 0.60327  0.52456  0.08922  Biso   1.000  S
  C368     1.0000 0.64800  0.40114  0.17784  Biso   1.000  C
  H392     1.0000 0.57350  0.45659  0.18809  Biso   1.000  H
  H393     1.0000 0.67539  0.52501  0.18841  Biso   1.000  H
  S32      1.0000 0.73004  0.58792  0.07746  Biso   1.000  S
  C369     1.0000 0.58010  0.31533  0.17747  Biso   1.000  C
  C370     1.0000 0.73521  0.41988  0.17747  Biso   1.000  C
  C371     1.0000 0.73423  0.65628  0.04888  Biso   1.000  C
  C372     1.0000 0.48723  0.29561  0.17553  Biso   1.000  C
  C373     1.0000 0.59891  0.24691  0.17784  Biso   1.000  C
  C374     1.0000 0.75310  0.35197  0.17784  Biso   1.000  C
  C375     1.0000 0.80842  0.51282  0.17553  Biso   1.000  C
  C376     1.0000 0.74563  0.73547  0.05405  Biso   1.000  C
  C377     1.0000 0.72612  0.62625  0.02140  Biso   1.000  C
  C378     1.0000 0.44674  0.28653  0.20176  Biso   1.000  C
  H394     1.0000 0.48589  0.34283  0.16499  Biso   1.000  H
  H395     1.0000 0.45334  0.24133  0.16480  Biso   1.000  H
  C379     1.0000 0.52488  0.15377  0.17808  Biso   1.000  C
  C380     1.0000 0.68470  0.26481  0.17747  Biso   1.000  C
  C381     1.0000 0.84619  0.37111  0.17808  Biso   1.000  C
  H396     1.0000 0.85692  0.51412  0.16499  Biso   1.000  H
  H397     1.0000 0.78803  0.54674  0.16480  Biso   1.000  H
  C382     1.0000 0.83978  0.55329  0.20176  Biso   1.000  C
  H398     1.0000 0.75505  0.75700  0.07267  Biso   1.000  H
  C383     1.0000 0.74395  0.78671  0.03187  Biso   1.000  C
  N32      1.0000 0.71023  0.54447  0.01631  Biso   1.000  N
  C384     1.0000 0.72948  0.68060  0.99994  Biso   1.000  C
  H399     1.0000 0.38650  0.27233  0.19890  Biso   1.000  H
  H400     1.0000 0.47791  0.34101  0.21230  Biso   1.000  H
  H401     1.0000 0.44751  0.23977  0.21249  Biso   1.000  H
  H402     1.0000 0.54338  0.11687  0.18809  Biso   1.000  H
  H403     1.0000 0.47500  0.15040  0.18841  Biso   1.000  H
  N33      1.0000 0.49909  0.12219  0.15036  Biso   1.000  N
  C385     1.0000 0.70442  0.19159  0.17553  Biso   1.000  C
  H404     1.0000 0.88310  0.42649  0.18809  Biso   1.000  H
  H405     1.0000 0.84962  0.32461  0.18841  Biso   1.000  H
  N34      1.0000 0.87778  0.37688  0.15036  Biso   1.000  N
  H406     1.0000 0.88582  0.61348  0.19890  Biso   1.000  H
  H407     1.0000 0.86310  0.52209  0.21230  Biso   1.000  H
  H408     1.0000 0.79232  0.55251  0.21249  Biso   1.000  H
  H409     1.0000 0.74635  0.84015  0.03576  Biso   1.000  H
  C386     1.0000 0.73926  0.76037  0.00512  Biso   1.000  C
  H410     1.0000 0.70335  0.51016  0.03057  Biso   1.000  H
  C387     1.0000 0.70443  0.51288  0.98860  Biso   1.000  C
  H411     1.0000 0.72484  0.66166  0.98098  Biso   1.000  H
  C388     1.0000 0.43320  0.04041  0.14528  Biso   1.000  C
  H412     1.0000 0.52652  0.15650  0.13610  Biso   1.000  H
  H413     1.0000 0.65719  0.14307  0.16499  Biso   1.000  H
  H414     1.0000 0.75873  0.21202  0.16480  Biso   1.000  H
  C389     1.0000 0.71349  0.16019  0.20176  Biso   1.000  C
  C390     1.0000 0.95962  0.39283  0.14528  Biso   1.000  C
  H415     1.0000 0.84351  0.37000  0.13610  Biso   1.000  H
  H416     1.0000 0.74252  0.79689  0.98996  Biso   1.000  H
  H417     1.0000 0.75984  0.54979  0.97856  Biso   1.000  H
  H418     1.0000 0.65793  0.51626  0.97827  Biso   1.000  H
  C391     1.0000 0.68533  0.41975  0.98881  Biso   1.000  C
  C392     1.0000 0.41128  0.01038  0.11777  Biso   1.000  C
  C393     1.0000 0.38224  0.98612  0.16674  Biso   1.000  C
  H419     1.0000 0.72769  0.11421  0.19890  Biso   1.000  H
  H420     1.0000 0.65900  0.13691  0.21230  Biso   1.000  H
  H421     1.0000 0.76024  0.20773  0.21249  Biso   1.000  H
  C394     1.0000 0.98959  0.40088  0.11777  Biso   1.000  C
  C395     1.0000 0.01392  0.39608  0.16674  Biso   1.000  C
  C396     1.0000 0.59813  0.35139  0.98919  Biso   1.000  C
  C397     1.0000 0.75322  0.40185  0.98919  Biso   1.000  C
  S33      1.0000 0.47545  0.07874  0.08922  Biso   1.000  S
  C398     1.0000 0.34349  0.93119  0.11261  Biso   1.000  C
  H422     1.0000 0.39651  0.00499  0.18570  Biso   1.000  H
  C399     1.0000 0.31222  0.90628  0.16155  Biso   1.000  C
  S34      1.0000 0.92129  0.39673  0.08922  Biso   1.000  S
  C400     1.0000 0.06882  0.41229  0.11261  Biso   1.000  C
  H423     1.0000 0.99499  0.39147  0.18570  Biso   1.000  H
  C401     1.0000 0.09372  0.40594  0.16155  Biso   1.000  C
  C402     1.0000 0.58022  0.26559  0.98881  Biso   1.000  C
  C403     1.0000 0.52494  0.37104  0.99114  Biso   1.000  C
  C404     1.0000 0.73446  0.31468  0.98881  Biso   1.000  C
  C405     1.0000 0.84616  0.47507  0.99114  Biso   1.000  C
  S35      1.0000 0.41204  0.14210  0.07746  Biso   1.000  S
  H424     1.0000 0.33140  0.90972  0.09400  Biso   1.000  H
  C406     1.0000 0.29060  0.88002  0.13478  Biso   1.000  C
  H425     1.0000 0.27896  0.86977  0.17669  Biso   1.000  H
  S36      1.0000 0.85789  0.26993  0.07746  Biso   1.000  S
  H426     1.0000 0.09031  0.42170  0.09400  Biso   1.000  H
  C407     1.0000 0.12004  0.41060  0.13478  Biso   1.000  C
  H427     1.0000 0.13022  0.40918  0.17669  Biso   1.000  H
  C408     1.0000 0.48717  0.19159  0.98860  Biso   1.000  C
  C409     1.0000 0.64866  0.24678  0.98919  Biso   1.000  C
  H428     1.0000 0.47643  0.32389  0.00166  Biso   1.000  H
  H429     1.0000 0.54537  0.42539  0.00187  Biso   1.000  H
  C410     1.0000 0.49356  0.38019  0.96491  Biso   1.000  C
  C411     1.0000 0.80841  0.29555  0.98860  Biso   1.000  C
  H430     1.0000 0.84745  0.52358  0.00166  Biso   1.000  H
  H431     1.0000 0.88004  0.45464  0.00187  Biso   1.000  H
  C412     1.0000 0.88663  0.50646  0.96491  Biso   1.000  C
  C413     1.0000 0.34374  0.07796  0.04888  Biso   1.000  C
  H432     1.0000 0.23953  0.82651  0.13089  Biso   1.000  H
  C414     1.0000 0.92204  0.26578  0.04888  Biso   1.000  C
  H433     1.0000 0.17353  0.41300  0.13089  Biso   1.000  H
  N35      1.0000 0.45556  0.16577  0.01631  Biso   1.000  N
  H434     1.0000 0.45024  0.21007  0.97856  Biso   1.000  H
  H435     1.0000 0.48371  0.14165  0.97827  Biso   1.000  H
  C415     1.0000 0.62893  0.15384  0.99114  Biso   1.000  C
  H436     1.0000 0.44753  0.39439  0.96777  Biso   1.000  H
  H437     1.0000 0.47022  0.32564  0.95437  Biso   1.000  H
  H438     1.0000 0.54106  0.42688  0.95416  Biso   1.000  H
  N36      1.0000 0.83423  0.28978  0.01631  Biso   1.000  N
  H439     1.0000 0.78993  0.24016  0.97856  Biso   1.000  H
  H440     1.0000 0.85834  0.34205  0.97827  Biso   1.000  H
  H441     1.0000 0.94680  0.55245  0.96777  Biso   1.000  H
  H442     1.0000 0.85541  0.52975  0.95437  Biso   1.000  H
  H443     1.0000 0.88586  0.45899  0.95416  Biso   1.000  H
  C416     1.0000 0.26453  0.01018  0.05405  Biso   1.000  C
  C417     1.0000 0.37374  0.09988  0.02140  Biso   1.000  C
  C418     1.0000 0.98985  0.25437  0.05405  Biso   1.000  C
  C419     1.0000 0.90014  0.27389  0.02140  Biso   1.000  C
  H444     1.0000 0.48985  0.19314  0.03057  Biso   1.000  H
  H445     1.0000 0.67614  0.15254  0.00166  Biso   1.000  H
  H446     1.0000 0.57465  0.11998  0.00187  Biso   1.000  H
  C420     1.0000 0.61982  0.11337  0.96491  Biso   1.000  C
  H447     1.0000 0.80683  0.29665  0.03057  Biso   1.000  H
  H448     1.0000 0.24302  0.99805  0.07267  Biso   1.000  H
  C421     1.0000 0.21335  0.95726  0.03187  Biso   1.000  C
  C422     1.0000 0.31941  0.04884  0.99994  Biso   1.000  C
  H449     1.0000 0.00195  0.24496  0.07267  Biso   1.000  H
  C423     1.0000 0.04276  0.25605  0.03187  Biso   1.000  C
  C424     1.0000 0.95117  0.27058  0.99994  Biso   1.000  C
  H450     1.0000 0.60567  0.05318  0.96777  Biso   1.000  H
  H451     1.0000 0.67434  0.14456  0.95437  Biso   1.000  H
  H452     1.0000 0.57314  0.11415  0.95416  Biso   1.000  H
  H453     1.0000 0.15983  0.90615  0.03576  Biso   1.000  H
  C425     1.0000 0.23965  0.97886  0.00512  Biso   1.000  C
  H454     1.0000 0.33831  0.06317  0.98098  Biso   1.000  H
  H455     1.0000 0.09386  0.25365  0.03576  Biso   1.000  H
  C426     1.0000 0.02115  0.26079  0.00512  Biso   1.000  C
  H456     1.0000 0.93685  0.27519  0.98098  Biso   1.000  H
  H457     1.0000 0.20311  0.94565  0.98996  Biso   1.000  H
  H458     1.0000 0.05437  0.25748  0.98996  Biso   1.000  H
