data_image0
_cell_length_a       17.129
_cell_length_b       25.42
_cell_length_c       28.125
_cell_angle_alpha    90
_cell_angle_beta     90
_cell_angle_gamma    90

_symmetry_space_group_name_H-M    "P 1"
_symmetry_int_tables_number       1

loop_
  _symmetry_equiv_pos_as_xyz
  'x, y, z'

loop_
  _atom_site_label
  _atom_site_occupancy
  _atom_site_fract_x
  _atom_site_fract_y
  _atom_site_fract_z
  _atom_site_thermal_displace_type
  _atom_site_B_iso_or_equiv
  _atom_site_type_symbol
  C1       1.0000 0.57750  0.54654  0.42037  Biso   1.000  C
  C2       1.0000 0.51363  0.55460  0.39132  Biso   1.000  C
  C3       1.0000 0.64172  0.52262  0.40043  Biso   1.000  C
  H1       1.0000 0.57709  0.55681  0.45209  Biso   1.000  H
  C4       1.0000 0.51281  0.53989  0.34411  Biso   1.000  C
  O1       1.0000 0.44352  0.57376  0.41077  Biso   1.000  O
  C5       1.0000 0.64376  0.50653  0.35349  Biso   1.000  C
  O2       1.0000 0.70600  0.51011  0.42980  Biso   1.000  O
  C6       1.0000 0.57873  0.51574  0.32544  Biso   1.000  C
  H2       1.0000 0.46909  0.54599  0.32519  Biso   1.000  H
  C7       1.0000 0.43914  0.62427  0.42411  Biso   1.000  C
  H3       1.0000 0.68772  0.49001  0.34108  Biso   1.000  H
  C8       1.0000 0.76286  0.54622  0.43452  Biso   1.000  C
  H4       1.0000 0.57919  0.50559  0.29369  Biso   1.000  H
  N1       1.0000 0.49915  0.65598  0.41660  Biso   1.000  N
  N2       1.0000 0.37107  0.63603  0.44430  Biso   1.000  N
  N3       1.0000 0.75083  0.59402  0.41660  Biso   1.000  N
  N4       1.0000 0.82509  0.52864  0.45739  Biso   1.000  N
  C9       1.0000 0.48719  0.70378  0.43452  Biso   1.000  C
  C10      1.0000 0.36826  0.68541  0.46023  Biso   1.000  C
  C11      1.0000 0.81085  0.62573  0.42411  Biso   1.000  C
  C12      1.0000 0.88172  0.56459  0.46023  Biso   1.000  C
  O3       1.0000 0.54405  0.73989  0.42980  Biso   1.000  O
  N5       1.0000 0.42489  0.72136  0.45739  Biso   1.000  N
  O4       1.0000 0.30434  0.70244  0.48213  Biso   1.000  O
  O5       1.0000 0.80653  0.67624  0.41077  Biso   1.000  O
  N6       1.0000 0.87898  0.61397  0.44430  Biso   1.000  N
  O6       1.0000 0.94565  0.54756  0.48213  Biso   1.000  O
  C13      1.0000 0.60827  0.72738  0.40043  Biso   1.000  C
  C14      1.0000 0.23650  0.66798  0.48281  Biso   1.000  C
  C15      1.0000 0.73635  0.69540  0.39132  Biso   1.000  C
  C16      1.0000 0.01349  0.58202  0.48281  Biso   1.000  C
  C17      1.0000 0.67249  0.70346  0.42037  Biso   1.000  C
  C18      1.0000 0.60622  0.74347  0.35349  Biso   1.000  C
  H5       1.0000 0.19020  0.68899  0.48860  Biso   1.000  H
  H6       1.0000 0.23078  0.65181  0.45180  Biso   1.000  H
  C19      1.0000 0.24135  0.62557  0.51975  Biso   1.000  C
  C20      1.0000 0.73717  0.71011  0.34411  Biso   1.000  C
  H7       1.0000 0.05978  0.56101  0.48860  Biso   1.000  H
  H8       1.0000 0.01921  0.59819  0.45180  Biso   1.000  H
  C21      1.0000 0.00864  0.62443  0.51975  Biso   1.000  C
  H9       1.0000 0.67289  0.69319  0.45209  Biso   1.000  H
  C22      1.0000 0.67132  0.73426  0.32544  Biso   1.000  C
  H10      1.0000 0.56232  0.75999  0.34108  Biso   1.000  H
  O7       1.0000 0.23708  0.64913  0.56516  Biso   1.000  O
  H11      1.0000 0.29009  0.60649  0.51652  Biso   1.000  H
  H12      1.0000 0.19873  0.60090  0.51570  Biso   1.000  H
  H13      1.0000 0.78090  0.70401  0.32519  Biso   1.000  H
  H14      1.0000 0.95989  0.64351  0.51652  Biso   1.000  H
  O8       1.0000 0.01296  0.60087  0.56516  Biso   1.000  O
  H15      1.0000 0.05132  0.64910  0.51570  Biso   1.000  H
  H16      1.0000 0.67079  0.74441  0.29369  Biso   1.000  H
  C23      1.0000 0.23919  0.61070  0.60171  Biso   1.000  C
  C24      1.0000 0.01086  0.63930  0.60171  Biso   1.000  C
  H17      1.0000 0.19388  0.58788  0.59950  Biso   1.000  H
  H18      1.0000 0.28577  0.58930  0.59879  Biso   1.000  H
  C25      1.0000 0.23919  0.63930  0.64832  Biso   1.000  C
  H19      1.0000 0.96421  0.66070  0.59879  Biso   1.000  H
  H20      1.0000 0.05610  0.66212  0.59950  Biso   1.000  H
  C26      1.0000 0.01086  0.61070  0.64832  Biso   1.000  C
  O9       1.0000 0.23708  0.60087  0.68484  Biso   1.000  O
  H21      1.0000 0.19388  0.66212  0.65049  Biso   1.000  H
  H22      1.0000 0.28577  0.66070  0.65120  Biso   1.000  H
  H23      1.0000 0.96421  0.58930  0.65120  Biso   1.000  H
  O10      1.0000 0.01296  0.64913  0.68484  Biso   1.000  O
  H24      1.0000 0.05610  0.58788  0.65049  Biso   1.000  H
  C27      1.0000 0.24135  0.62443  0.73028  Biso   1.000  C
  C28      1.0000 0.00864  0.62557  0.73028  Biso   1.000  C
  C29      1.0000 0.23650  0.58202  0.76722  Biso   1.000  C
  H25      1.0000 0.29009  0.64351  0.73351  Biso   1.000  H
  H26      1.0000 0.19873  0.64910  0.73429  Biso   1.000  H
  H27      1.0000 0.95989  0.60649  0.73351  Biso   1.000  H
  C30      1.0000 0.01349  0.66798  0.76722  Biso   1.000  C
  H28      1.0000 0.05132  0.60090  0.73429  Biso   1.000  H
  O11      1.0000 0.30434  0.54756  0.76786  Biso   1.000  O
  H29      1.0000 0.19020  0.56101  0.76139  Biso   1.000  H
  H30      1.0000 0.23078  0.59819  0.79819  Biso   1.000  H
  O12      1.0000 0.94565  0.70244  0.76786  Biso   1.000  O
  H31      1.0000 0.05978  0.68899  0.76139  Biso   1.000  H
  H32      1.0000 0.01921  0.65181  0.79819  Biso   1.000  H
  C31      1.0000 0.36826  0.56459  0.78976  Biso   1.000  C
  C32      1.0000 0.88172  0.68541  0.78976  Biso   1.000  C
  N7       1.0000 0.37107  0.61397  0.80569  Biso   1.000  N
  N8       1.0000 0.42489  0.52864  0.79260  Biso   1.000  N
  N9       1.0000 0.87898  0.63603  0.80569  Biso   1.000  N
  N10      1.0000 0.82509  0.72136  0.79260  Biso   1.000  N
  C33      1.0000 0.43914  0.62573  0.82588  Biso   1.000  C
  C34      1.0000 0.48719  0.54622  0.81550  Biso   1.000  C
  C35      1.0000 0.81085  0.62427  0.82588  Biso   1.000  C
  C36      1.0000 0.76286  0.70378  0.81550  Biso   1.000  C
  O13      1.0000 0.44352  0.67624  0.83922  Biso   1.000  O
  N11      1.0000 0.49915  0.59402  0.83342  Biso   1.000  N
  O14      1.0000 0.54405  0.51011  0.82020  Biso   1.000  O
  O15      1.0000 0.80653  0.57376  0.83922  Biso   1.000  O
  N12      1.0000 0.75083  0.65598  0.83342  Biso   1.000  N
  O16      1.0000 0.70600  0.73989  0.82020  Biso   1.000  O
  C37      1.0000 0.51363  0.69540  0.85867  Biso   1.000  C
  C38      1.0000 0.60827  0.52262  0.84956  Biso   1.000  C
  C39      1.0000 0.73635  0.55460  0.85867  Biso   1.000  C
  C40      1.0000 0.64172  0.72738  0.84956  Biso   1.000  C
  C41      1.0000 0.57750  0.70346  0.82962  Biso   1.000  C
  C42      1.0000 0.51281  0.71011  0.90588  Biso   1.000  C
  C43      1.0000 0.67249  0.54654  0.82962  Biso   1.000  C
  C44      1.0000 0.60622  0.50653  0.89650  Biso   1.000  C
  C45      1.0000 0.73717  0.53989  0.90588  Biso   1.000  C
  C46      1.0000 0.64376  0.74347  0.89650  Biso   1.000  C
  H33      1.0000 0.57709  0.69319  0.79790  Biso   1.000  H
  H34      1.0000 0.46909  0.70401  0.92480  Biso   1.000  H
  C47      1.0000 0.57873  0.73426  0.92455  Biso   1.000  C
  H35      1.0000 0.67289  0.55681  0.79790  Biso   1.000  H
  C48      1.0000 0.67132  0.51574  0.92455  Biso   1.000  C
  H36      1.0000 0.56232  0.49001  0.90891  Biso   1.000  H
  H37      1.0000 0.78090  0.54599  0.92480  Biso   1.000  H
  H38      1.0000 0.68772  0.75999  0.90891  Biso   1.000  H
  H39      1.0000 0.57919  0.74441  0.95630  Biso   1.000  H
  H40      1.0000 0.67079  0.50559  0.95630  Biso   1.000  H
  C49      1.0000 0.42250  0.45346  0.57963  Biso   1.000  C
  C50      1.0000 0.35828  0.47738  0.59957  Biso   1.000  C
  H41      1.0000 0.42291  0.44319  0.54791  Biso   1.000  H
  C51      1.0000 0.48637  0.44540  0.60868  Biso   1.000  C
  O17      1.0000 0.29400  0.48989  0.57020  Biso   1.000  O
  C52      1.0000 0.35624  0.49347  0.64651  Biso   1.000  C
  C53      1.0000 0.48719  0.46011  0.65589  Biso   1.000  C
  O18      1.0000 0.55648  0.42624  0.58923  Biso   1.000  O
  C54      1.0000 0.23714  0.45378  0.56548  Biso   1.000  C
  C55      1.0000 0.42127  0.48426  0.67456  Biso   1.000  C
  H42      1.0000 0.31228  0.50999  0.65892  Biso   1.000  H
  H43      1.0000 0.53091  0.45401  0.67481  Biso   1.000  H
  C56      1.0000 0.56086  0.37573  0.57589  Biso   1.000  C
  N13      1.0000 0.17491  0.47136  0.54261  Biso   1.000  N
  N14      1.0000 0.24917  0.40598  0.58340  Biso   1.000  N
  H44      1.0000 0.42081  0.49441  0.70631  Biso   1.000  H
  N15      1.0000 0.62893  0.36397  0.55570  Biso   1.000  N
  N16      1.0000 0.50085  0.34402  0.58340  Biso   1.000  N
  C57      1.0000 0.11828  0.43541  0.53977  Biso   1.000  C
  C58      1.0000 0.18915  0.37427  0.57589  Biso   1.000  C
  C59      1.0000 0.63174  0.31459  0.53977  Biso   1.000  C
  C60      1.0000 0.51281  0.29622  0.56548  Biso   1.000  C
  O19      1.0000 0.05435  0.45244  0.51787  Biso   1.000  O
  N17      1.0000 0.12102  0.38603  0.55570  Biso   1.000  N
  O20      1.0000 0.19347  0.32376  0.58923  Biso   1.000  O
  O21      1.0000 0.69566  0.29756  0.51787  Biso   1.000  O
  N18      1.0000 0.57511  0.27864  0.54261  Biso   1.000  N
  O22      1.0000 0.45595  0.26011  0.57020  Biso   1.000  O
  C61      1.0000 0.98651  0.41798  0.51719  Biso   1.000  C
  C62      1.0000 0.26365  0.30460  0.60868  Biso   1.000  C
  C63      1.0000 0.76350  0.33202  0.51719  Biso   1.000  C
  C64      1.0000 0.39173  0.27262  0.59957  Biso   1.000  C
  C65      1.0000 0.99136  0.37557  0.48025  Biso   1.000  C
  H45      1.0000 0.94022  0.43899  0.51140  Biso   1.000  H
  H46      1.0000 0.98079  0.40181  0.54820  Biso   1.000  H
  C66      1.0000 0.32751  0.29654  0.57963  Biso   1.000  C
  C67      1.0000 0.26283  0.28989  0.65589  Biso   1.000  C
  C68      1.0000 0.75865  0.37443  0.48025  Biso   1.000  C
  H47      1.0000 0.80980  0.31101  0.51140  Biso   1.000  H
  H48      1.0000 0.76922  0.34819  0.54820  Biso   1.000  H
  C69      1.0000 0.39378  0.25653  0.64651  Biso   1.000  C
  O23      1.0000 0.98704  0.39913  0.43484  Biso   1.000  O
  H49      1.0000 0.04011  0.35649  0.48348  Biso   1.000  H
  H50      1.0000 0.94868  0.35090  0.48430  Biso   1.000  H
  H51      1.0000 0.32711  0.30681  0.54791  Biso   1.000  H
  H52      1.0000 0.21910  0.29599  0.67481  Biso   1.000  H
  C70      1.0000 0.32868  0.26574  0.67456  Biso   1.000  C
  O24      1.0000 0.76292  0.35087  0.43484  Biso   1.000  O
  H53      1.0000 0.70991  0.39351  0.48348  Biso   1.000  H
  H54      1.0000 0.80127  0.39910  0.48430  Biso   1.000  H
  H55      1.0000 0.43768  0.24001  0.65892  Biso   1.000  H
  C71      1.0000 0.98914  0.36070  0.39829  Biso   1.000  C
  H56      1.0000 0.32921  0.25559  0.70631  Biso   1.000  H
  C72      1.0000 0.76081  0.38930  0.39829  Biso   1.000  C
  C73      1.0000 0.98914  0.38930  0.35168  Biso   1.000  C
  H57      1.0000 0.03579  0.33930  0.40121  Biso   1.000  H
  H58      1.0000 0.94390  0.33788  0.40050  Biso   1.000  H
  C74      1.0000 0.76081  0.36070  0.35168  Biso   1.000  C
  H59      1.0000 0.80612  0.41212  0.40050  Biso   1.000  H
  H60      1.0000 0.71423  0.41070  0.40121  Biso   1.000  H
  O25      1.0000 0.98704  0.35087  0.31516  Biso   1.000  O
  H61      1.0000 0.03579  0.41070  0.34880  Biso   1.000  H
  H62      1.0000 0.94390  0.41212  0.34951  Biso   1.000  H
  O26      1.0000 0.76292  0.39913  0.31516  Biso   1.000  O
  H63      1.0000 0.80612  0.33788  0.34951  Biso   1.000  H
  H64      1.0000 0.71423  0.33930  0.34880  Biso   1.000  H
  C75      1.0000 0.99136  0.37443  0.26972  Biso   1.000  C
  C76      1.0000 0.75865  0.37557  0.26972  Biso   1.000  C
  C77      1.0000 0.98651  0.33202  0.23282  Biso   1.000  C
  H65      1.0000 0.04011  0.39351  0.26649  Biso   1.000  H
  H66      1.0000 0.94868  0.39910  0.26571  Biso   1.000  H
  C78      1.0000 0.76350  0.41798  0.23282  Biso   1.000  C
  H67      1.0000 0.70991  0.35649  0.26649  Biso   1.000  H
  H68      1.0000 0.80127  0.35090  0.26571  Biso   1.000  H
  O27      1.0000 0.05435  0.29756  0.23214  Biso   1.000  O
  H69      1.0000 0.94022  0.31101  0.23861  Biso   1.000  H
  H70      1.0000 0.98079  0.34819  0.20181  Biso   1.000  H
  O28      1.0000 0.69566  0.45244  0.23214  Biso   1.000  O
  H71      1.0000 0.80980  0.43899  0.23861  Biso   1.000  H
  H72      1.0000 0.76922  0.40181  0.20181  Biso   1.000  H
  C79      1.0000 0.11828  0.31459  0.21024  Biso   1.000  C
  C80      1.0000 0.63174  0.43541  0.21024  Biso   1.000  C
  N19      1.0000 0.17491  0.27864  0.20740  Biso   1.000  N
  N20      1.0000 0.12102  0.36397  0.19431  Biso   1.000  N
  N21      1.0000 0.62893  0.38603  0.19431  Biso   1.000  N
  N22      1.0000 0.57511  0.47136  0.20740  Biso   1.000  N
  C81      1.0000 0.23714  0.29622  0.18450  Biso   1.000  C
  C82      1.0000 0.18915  0.37573  0.17412  Biso   1.000  C
  C83      1.0000 0.56086  0.37427  0.17412  Biso   1.000  C
  C84      1.0000 0.51281  0.45378  0.18450  Biso   1.000  C
  O29      1.0000 0.29400  0.26011  0.17980  Biso   1.000  O
  N23      1.0000 0.24917  0.34402  0.16658  Biso   1.000  N
  O30      1.0000 0.19347  0.42624  0.16078  Biso   1.000  O
  O31      1.0000 0.55648  0.32376  0.16078  Biso   1.000  O
  N24      1.0000 0.50085  0.40598  0.16658  Biso   1.000  N
  O32      1.0000 0.45595  0.48989  0.17980  Biso   1.000  O
  C85      1.0000 0.35828  0.27262  0.15044  Biso   1.000  C
  C86      1.0000 0.26365  0.44540  0.14133  Biso   1.000  C
  C87      1.0000 0.48637  0.30460  0.14133  Biso   1.000  C
  C88      1.0000 0.39173  0.47738  0.15044  Biso   1.000  C
  C89      1.0000 0.42250  0.29654  0.17038  Biso   1.000  C
  C90      1.0000 0.35624  0.25653  0.10350  Biso   1.000  C
  C91      1.0000 0.32751  0.45346  0.17038  Biso   1.000  C
  C92      1.0000 0.26283  0.46011  0.09412  Biso   1.000  C
  C93      1.0000 0.48719  0.28989  0.09412  Biso   1.000  C
  C94      1.0000 0.39378  0.49347  0.10350  Biso   1.000  C
  H73      1.0000 0.42291  0.30681  0.20210  Biso   1.000  H
  C95      1.0000 0.42127  0.26574  0.07545  Biso   1.000  C
  H74      1.0000 0.31228  0.24001  0.09109  Biso   1.000  H
  H75      1.0000 0.32711  0.44319  0.20210  Biso   1.000  H
  H76      1.0000 0.21910  0.45401  0.07520  Biso   1.000  H
  C96      1.0000 0.32868  0.48426  0.07545  Biso   1.000  C
  H77      1.0000 0.53091  0.29599  0.07520  Biso   1.000  H
  H78      1.0000 0.43768  0.50999  0.09109  Biso   1.000  H
  H79      1.0000 0.42081  0.25559  0.04370  Biso   1.000  H
  H80      1.0000 0.32921  0.49441  0.04370  Biso   1.000  H
  C97      1.0000 0.76280  0.46011  0.59410  Biso   1.000  C
  C98      1.0000 0.76368  0.44540  0.64132  Biso   1.000  C
  H81      1.0000 0.71907  0.45401  0.57518  Biso   1.000  H
  C99      1.0000 0.82871  0.48426  0.57543  Biso   1.000  C
  O33      1.0000 0.69350  0.42624  0.66076  Biso   1.000  O
  C100     1.0000 0.82749  0.45346  0.67036  Biso   1.000  C
  H82      1.0000 0.82918  0.49441  0.54372  Biso   1.000  H
  C101     1.0000 0.89375  0.49347  0.60352  Biso   1.000  C
  C102     1.0000 0.68912  0.37573  0.67410  Biso   1.000  C
  C103     1.0000 0.89170  0.47738  0.65045  Biso   1.000  C
  H83      1.0000 0.82708  0.44319  0.70212  Biso   1.000  H
  H84      1.0000 0.93771  0.50999  0.59111  Biso   1.000  H
  N25      1.0000 0.74914  0.34402  0.66660  Biso   1.000  N
  N26      1.0000 0.62105  0.36397  0.69429  Biso   1.000  N
  O34      1.0000 0.95598  0.48989  0.67979  Biso   1.000  O
  C104     1.0000 0.73717  0.29622  0.68452  Biso   1.000  C
  C105     1.0000 0.61831  0.31459  0.71022  Biso   1.000  C
  C106     1.0000 0.01284  0.45378  0.68452  Biso   1.000  C
  O35      1.0000 0.79403  0.26011  0.67979  Biso   1.000  O
  N27      1.0000 0.67494  0.27864  0.70738  Biso   1.000  N
  O36      1.0000 0.55432  0.29756  0.73212  Biso   1.000  O
  N28      1.0000 0.00082  0.40598  0.66660  Biso   1.000  N
  N29      1.0000 0.07508  0.47136  0.70738  Biso   1.000  N
  C107     1.0000 0.85831  0.27262  0.65045  Biso   1.000  C
  C108     1.0000 0.48648  0.33202  0.73280  Biso   1.000  C
  C109     1.0000 0.06089  0.37427  0.67410  Biso   1.000  C
  C110     1.0000 0.13171  0.43541  0.71022  Biso   1.000  C
  C111     1.0000 0.92253  0.29654  0.67036  Biso   1.000  C
  C112     1.0000 0.85621  0.25653  0.60352  Biso   1.000  C
  H85      1.0000 0.44019  0.31101  0.73860  Biso   1.000  H
  H86      1.0000 0.48082  0.34819  0.70180  Biso   1.000  H
  C113     1.0000 0.49139  0.37443  0.76974  Biso   1.000  C
  O37      1.0000 0.05651  0.32376  0.66076  Biso   1.000  O
  N30      1.0000 0.12896  0.38603  0.69429  Biso   1.000  N
  O38      1.0000 0.19563  0.45244  0.73212  Biso   1.000  O
  H87      1.0000 0.92288  0.30681  0.70212  Biso   1.000  H
  C114     1.0000 0.98634  0.30460  0.64132  Biso   1.000  C
  C115     1.0000 0.92130  0.26574  0.57543  Biso   1.000  C
  H88      1.0000 0.81231  0.24001  0.59111  Biso   1.000  H
  O39      1.0000 0.48707  0.35087  0.81518  Biso   1.000  O
  H89      1.0000 0.54008  0.39351  0.76651  Biso   1.000  H
  H90      1.0000 0.44871  0.39910  0.76569  Biso   1.000  H
  C116     1.0000 0.26353  0.41798  0.73280  Biso   1.000  C
  C117     1.0000 0.98721  0.28989  0.59410  Biso   1.000  C
  H91      1.0000 0.92078  0.25559  0.54372  Biso   1.000  H
  C118     1.0000 0.48917  0.38930  0.85170  Biso   1.000  C
  H92      1.0000 0.30983  0.43899  0.73860  Biso   1.000  H
  H93      1.0000 0.26919  0.40181  0.70180  Biso   1.000  H
  C119     1.0000 0.25863  0.37557  0.76974  Biso   1.000  C
  H94      1.0000 0.03088  0.29599  0.57518  Biso   1.000  H
  C120     1.0000 0.48917  0.36070  0.89831  Biso   1.000  C
  H95      1.0000 0.44393  0.41212  0.84949  Biso   1.000  H
  H96      1.0000 0.53582  0.41070  0.84878  Biso   1.000  H
  O40      1.0000 0.26295  0.39913  0.81518  Biso   1.000  O
  H97      1.0000 0.20988  0.35649  0.76651  Biso   1.000  H
  H98      1.0000 0.30130  0.35090  0.76569  Biso   1.000  H
  O41      1.0000 0.48707  0.39913  0.93483  Biso   1.000  O
  H99      1.0000 0.44393  0.33788  0.90052  Biso   1.000  H
  H100     1.0000 0.53582  0.33930  0.90119  Biso   1.000  H
  C121     1.0000 0.26084  0.36070  0.85170  Biso   1.000  C
  C122     1.0000 0.49139  0.37557  0.98027  Biso   1.000  C
  C123     1.0000 0.26084  0.38930  0.89831  Biso   1.000  C
  H101     1.0000 0.30609  0.33788  0.84949  Biso   1.000  H
  H102     1.0000 0.21420  0.33930  0.84878  Biso   1.000  H
  H103     1.0000 0.54008  0.35649  0.98350  Biso   1.000  H
  H104     1.0000 0.44871  0.35090  0.98428  Biso   1.000  H
  C124     1.0000 0.48648  0.41798  0.01721  Biso   1.000  C
  O42      1.0000 0.26295  0.35087  0.93483  Biso   1.000  O
  H105     1.0000 0.30609  0.41212  0.90052  Biso   1.000  H
  H106     1.0000 0.21420  0.41070  0.90119  Biso   1.000  H
  O43      1.0000 0.55432  0.45244  0.01785  Biso   1.000  O
  H107     1.0000 0.44019  0.43899  0.01141  Biso   1.000  H
  H108     1.0000 0.48082  0.40181  0.04821  Biso   1.000  H
  C125     1.0000 0.25863  0.37443  0.98027  Biso   1.000  C
  C126     1.0000 0.61831  0.43541  0.03979  Biso   1.000  C
  H109     1.0000 0.20988  0.39351  0.98350  Biso   1.000  H
  H110     1.0000 0.30130  0.39910  0.98428  Biso   1.000  H
  C127     1.0000 0.26353  0.33202  0.01721  Biso   1.000  C
  N31      1.0000 0.62105  0.38603  0.05568  Biso   1.000  N
  N32      1.0000 0.67494  0.47136  0.04263  Biso   1.000  N
  O44      1.0000 0.19563  0.29756  0.01785  Biso   1.000  O
  H111     1.0000 0.30983  0.31101  0.01141  Biso   1.000  H
  H112     1.0000 0.26919  0.34819  0.04821  Biso   1.000  H
  C128     1.0000 0.68912  0.37427  0.07591  Biso   1.000  C
  C129     1.0000 0.73717  0.45378  0.06549  Biso   1.000  C
  C130     1.0000 0.13171  0.31459  0.03979  Biso   1.000  C
  O45      1.0000 0.69350  0.32376  0.08924  Biso   1.000  O
  N33      1.0000 0.74914  0.40598  0.08341  Biso   1.000  N
  O46      1.0000 0.79403  0.48989  0.07019  Biso   1.000  O
  N34      1.0000 0.12896  0.36397  0.05568  Biso   1.000  N
  N35      1.0000 0.07508  0.27864  0.04263  Biso   1.000  N
  C131     1.0000 0.76368  0.30460  0.10869  Biso   1.000  C
  C132     1.0000 0.85831  0.47738  0.09956  Biso   1.000  C
  C133     1.0000 0.06089  0.37573  0.07591  Biso   1.000  C
  C134     1.0000 0.01284  0.29622  0.06549  Biso   1.000  C
  C135     1.0000 0.82749  0.29654  0.07964  Biso   1.000  C
  C136     1.0000 0.76280  0.28989  0.15588  Biso   1.000  C
  C137     1.0000 0.92253  0.45346  0.07964  Biso   1.000  C
  C138     1.0000 0.85621  0.49347  0.14649  Biso   1.000  C
  O47      1.0000 0.05651  0.42624  0.08924  Biso   1.000  O
  N36      1.0000 0.00082  0.34402  0.08341  Biso   1.000  N
  O48      1.0000 0.95598  0.26011  0.07019  Biso   1.000  O
  C139     1.0000 0.89170  0.27262  0.09956  Biso   1.000  C
  H113     1.0000 0.82708  0.30681  0.04789  Biso   1.000  H
  H114     1.0000 0.71907  0.29599  0.17479  Biso   1.000  H
  C140     1.0000 0.82871  0.26574  0.17458  Biso   1.000  C
  H115     1.0000 0.92288  0.44319  0.04789  Biso   1.000  H
  C141     1.0000 0.98634  0.44540  0.10869  Biso   1.000  C
  C142     1.0000 0.92130  0.48426  0.17458  Biso   1.000  C
  H116     1.0000 0.81231  0.50999  0.15890  Biso   1.000  H
  C143     1.0000 0.89375  0.25653  0.14649  Biso   1.000  C
  H117     1.0000 0.82918  0.25559  0.20629  Biso   1.000  H
  C144     1.0000 0.98721  0.46011  0.15588  Biso   1.000  C
  H118     1.0000 0.92078  0.49441  0.20629  Biso   1.000  H
  H119     1.0000 0.93771  0.24001  0.15890  Biso   1.000  H
  H120     1.0000 0.03088  0.45401  0.17479  Biso   1.000  H
  C145     1.0000 0.23720  0.53989  0.40590  Biso   1.000  C
  C146     1.0000 0.23632  0.55460  0.35868  Biso   1.000  C
  C147     1.0000 0.17129  0.51574  0.42457  Biso   1.000  C
  H121     1.0000 0.28093  0.54599  0.42482  Biso   1.000  H
  C148     1.0000 0.17251  0.54654  0.32964  Biso   1.000  C
  O49      1.0000 0.30650  0.57376  0.33924  Biso   1.000  O
  C149     1.0000 0.10625  0.50653  0.39648  Biso   1.000  C
  H122     1.0000 0.17082  0.50559  0.45628  Biso   1.000  H
  C150     1.0000 0.10830  0.52262  0.34955  Biso   1.000  C
  H123     1.0000 0.17292  0.55681  0.29788  Biso   1.000  H
  C151     1.0000 0.31088  0.62427  0.32590  Biso   1.000  C
  H124     1.0000 0.06229  0.49001  0.40889  Biso   1.000  H
  O50      1.0000 0.04402  0.51011  0.32021  Biso   1.000  O
  N37      1.0000 0.25086  0.65598  0.33340  Biso   1.000  N
  N38      1.0000 0.37895  0.63603  0.30571  Biso   1.000  N
  C152     1.0000 0.98716  0.54622  0.31548  Biso   1.000  C
  C153     1.0000 0.26283  0.70378  0.31548  Biso   1.000  C
  C154     1.0000 0.38169  0.68541  0.28978  Biso   1.000  C
  N39      1.0000 0.99918  0.59402  0.33340  Biso   1.000  N
  N40      1.0000 0.92492  0.52864  0.29262  Biso   1.000  N
  O51      1.0000 0.20597  0.73989  0.32021  Biso   1.000  O
  N41      1.0000 0.32506  0.72136  0.29262  Biso   1.000  N
  O52      1.0000 0.44568  0.70244  0.26788  Biso   1.000  O
  C155     1.0000 0.93911  0.62573  0.32590  Biso   1.000  C
  C156     1.0000 0.86829  0.56459  0.28978  Biso   1.000  C
  C157     1.0000 0.14169  0.72738  0.34955  Biso   1.000  C
  C158     1.0000 0.51352  0.66798  0.26720  Biso   1.000  C
  O53      1.0000 0.94349  0.67624  0.33924  Biso   1.000  O
  N42      1.0000 0.87104  0.61397  0.30571  Biso   1.000  N
  O54      1.0000 0.80437  0.54756  0.26788  Biso   1.000  O
  C159     1.0000 0.07747  0.70346  0.32964  Biso   1.000  C
  C160     1.0000 0.14379  0.74347  0.39648  Biso   1.000  C
  H125     1.0000 0.55981  0.68899  0.26140  Biso   1.000  H
  H126     1.0000 0.51918  0.65181  0.29820  Biso   1.000  H
  C161     1.0000 0.50861  0.62557  0.23026  Biso   1.000  C
  C162     1.0000 0.01366  0.69540  0.35868  Biso   1.000  C
  C163     1.0000 0.73647  0.58202  0.26720  Biso   1.000  C
  H127     1.0000 0.07712  0.69319  0.29788  Biso   1.000  H
  C164     1.0000 0.07870  0.73426  0.42457  Biso   1.000  C
  H128     1.0000 0.18769  0.75999  0.40889  Biso   1.000  H
  O55      1.0000 0.51293  0.64913  0.18482  Biso   1.000  O
  H129     1.0000 0.45992  0.60649  0.23349  Biso   1.000  H
  H130     1.0000 0.55129  0.60090  0.23431  Biso   1.000  H
  C165     1.0000 0.01279  0.71011  0.40590  Biso   1.000  C
  H131     1.0000 0.69017  0.56101  0.26140  Biso   1.000  H
  H132     1.0000 0.73081  0.59819  0.29820  Biso   1.000  H
  C166     1.0000 0.74137  0.62443  0.23026  Biso   1.000  C
  H133     1.0000 0.07922  0.74441  0.45628  Biso   1.000  H
  C167     1.0000 0.51083  0.61070  0.14830  Biso   1.000  C
  H134     1.0000 0.96912  0.70401  0.42482  Biso   1.000  H
  O56      1.0000 0.73705  0.60087  0.18482  Biso   1.000  O
  H135     1.0000 0.79012  0.64351  0.23349  Biso   1.000  H
  H136     1.0000 0.69870  0.64910  0.23431  Biso   1.000  H
  C168     1.0000 0.51083  0.63930  0.10169  Biso   1.000  C
  H137     1.0000 0.55607  0.58788  0.15051  Biso   1.000  H
  H138     1.0000 0.46418  0.58930  0.15122  Biso   1.000  H
  C169     1.0000 0.73916  0.63930  0.14830  Biso   1.000  C
  O57      1.0000 0.51293  0.60087  0.06517  Biso   1.000  O
  H139     1.0000 0.55607  0.66212  0.09948  Biso   1.000  H
  H140     1.0000 0.46418  0.66070  0.09881  Biso   1.000  H
  C170     1.0000 0.73916  0.61070  0.10169  Biso   1.000  C
  H141     1.0000 0.69391  0.66212  0.15051  Biso   1.000  H
  H142     1.0000 0.78580  0.66070  0.15122  Biso   1.000  H
  C171     1.0000 0.50861  0.62443  0.01973  Biso   1.000  C
  O58      1.0000 0.73705  0.64913  0.06517  Biso   1.000  O
  H143     1.0000 0.69391  0.58788  0.09948  Biso   1.000  H
  H144     1.0000 0.78580  0.58930  0.09881  Biso   1.000  H
  H145     1.0000 0.45992  0.64351  0.01650  Biso   1.000  H
  H146     1.0000 0.55129  0.64910  0.01572  Biso   1.000  H
  C172     1.0000 0.51352  0.58202  0.98279  Biso   1.000  C
  C173     1.0000 0.74137  0.62557  0.01973  Biso   1.000  C
  O59      1.0000 0.44568  0.54756  0.98215  Biso   1.000  O
  H147     1.0000 0.55981  0.56101  0.98859  Biso   1.000  H
  H148     1.0000 0.51918  0.59819  0.95179  Biso   1.000  H
  C174     1.0000 0.73647  0.66798  0.98279  Biso   1.000  C
  H149     1.0000 0.79012  0.60649  0.01650  Biso   1.000  H
  H150     1.0000 0.69870  0.60090  0.01572  Biso   1.000  H
  C175     1.0000 0.38169  0.56459  0.96021  Biso   1.000  C
  O60      1.0000 0.80437  0.70244  0.98215  Biso   1.000  O
  H151     1.0000 0.69017  0.68899  0.98859  Biso   1.000  H
  H152     1.0000 0.73081  0.65181  0.95179  Biso   1.000  H
  N43      1.0000 0.37895  0.61397  0.94432  Biso   1.000  N
  N44      1.0000 0.32506  0.52864  0.95737  Biso   1.000  N
  C176     1.0000 0.86829  0.68541  0.96021  Biso   1.000  C
  C177     1.0000 0.31088  0.62573  0.92409  Biso   1.000  C
  C178     1.0000 0.26283  0.54622  0.93451  Biso   1.000  C
  N45      1.0000 0.87104  0.63603  0.94432  Biso   1.000  N
  N46      1.0000 0.92492  0.72136  0.95737  Biso   1.000  N
  O61      1.0000 0.30650  0.67624  0.91076  Biso   1.000  O
  N47      1.0000 0.25086  0.59402  0.91659  Biso   1.000  N
  O62      1.0000 0.20597  0.51011  0.92981  Biso   1.000  O
  C179     1.0000 0.93911  0.62427  0.92409  Biso   1.000  C
  C180     1.0000 0.98716  0.70378  0.93451  Biso   1.000  C
  C181     1.0000 0.23632  0.69540  0.89131  Biso   1.000  C
  C182     1.0000 0.14169  0.52262  0.90044  Biso   1.000  C
  O63      1.0000 0.94349  0.57376  0.91076  Biso   1.000  O
  N48      1.0000 0.99918  0.65598  0.91659  Biso   1.000  N
  O64      1.0000 0.04402  0.73989  0.92981  Biso   1.000  O
  C183     1.0000 0.17251  0.70346  0.92036  Biso   1.000  C
  C184     1.0000 0.23720  0.71011  0.84412  Biso   1.000  C
  C185     1.0000 0.07747  0.54654  0.92036  Biso   1.000  C
  C186     1.0000 0.14379  0.50653  0.85351  Biso   1.000  C
  C187     1.0000 0.01366  0.55460  0.89131  Biso   1.000  C
  C188     1.0000 0.10830  0.72738  0.90044  Biso   1.000  C
  H153     1.0000 0.17292  0.69319  0.95211  Biso   1.000  H
  C189     1.0000 0.17129  0.73426  0.82542  Biso   1.000  C
  H154     1.0000 0.28093  0.70401  0.82521  Biso   1.000  H
  H155     1.0000 0.07712  0.55681  0.95211  Biso   1.000  H
  C190     1.0000 0.07870  0.51574  0.82542  Biso   1.000  C
  H156     1.0000 0.18769  0.49001  0.84110  Biso   1.000  H
  C191     1.0000 0.01279  0.53989  0.84412  Biso   1.000  C
  C192     1.0000 0.10625  0.74347  0.85351  Biso   1.000  C
  H157     1.0000 0.17082  0.74441  0.79371  Biso   1.000  H
  H158     1.0000 0.07922  0.50559  0.79371  Biso   1.000  H
  H159     1.0000 0.96912  0.54599  0.82521  Biso   1.000  H
  H160     1.0000 0.06229  0.75999  0.84110  Biso   1.000  H
  C193     1.0000 0.57873  0.23426  0.42457  Biso   1.000  C
  C194     1.0000 0.51281  0.21011  0.40590  Biso   1.000  C
  C195     1.0000 0.64376  0.24347  0.39648  Biso   1.000  C
  H161     1.0000 0.57919  0.24441  0.45628  Biso   1.000  H
  C196     1.0000 0.51363  0.19540  0.35868  Biso   1.000  C
  H162     1.0000 0.46909  0.20401  0.42482  Biso   1.000  H
  C197     1.0000 0.64172  0.22738  0.34955  Biso   1.000  C
  H163     1.0000 0.68772  0.25999  0.40889  Biso   1.000  H
  O65      1.0000 0.44352  0.17624  0.33924  Biso   1.000  O
  C198     1.0000 0.57750  0.20346  0.32964  Biso   1.000  C
  O66      1.0000 0.70600  0.23989  0.32021  Biso   1.000  O
  C199     1.0000 0.43914  0.12573  0.32590  Biso   1.000  C
  H164     1.0000 0.57709  0.19319  0.29788  Biso   1.000  H
  C200     1.0000 0.76286  0.20378  0.31548  Biso   1.000  C
  N49      1.0000 0.37107  0.11397  0.30571  Biso   1.000  N
  N50      1.0000 0.49915  0.09402  0.33340  Biso   1.000  N
  N51      1.0000 0.75083  0.15598  0.33340  Biso   1.000  N
  N52      1.0000 0.82509  0.22136  0.29262  Biso   1.000  N
  C201     1.0000 0.36826  0.06459  0.28978  Biso   1.000  C
  C202     1.0000 0.48719  0.04622  0.31548  Biso   1.000  C
  C203     1.0000 0.81085  0.12427  0.32590  Biso   1.000  C
  C204     1.0000 0.88172  0.18541  0.28978  Biso   1.000  C
  O67      1.0000 0.30434  0.04756  0.26788  Biso   1.000  O
  N53      1.0000 0.42489  0.02864  0.29262  Biso   1.000  N
  O68      1.0000 0.54405  0.01011  0.32021  Biso   1.000  O
  O69      1.0000 0.80653  0.07376  0.33924  Biso   1.000  O
  N54      1.0000 0.87898  0.13603  0.30571  Biso   1.000  N
  O70      1.0000 0.94565  0.20244  0.26788  Biso   1.000  O
  C205     1.0000 0.23650  0.08202  0.26720  Biso   1.000  C
  C206     1.0000 0.60827  0.02262  0.34955  Biso   1.000  C
  C207     1.0000 0.73635  0.05460  0.35868  Biso   1.000  C
  C208     1.0000 0.01349  0.16798  0.26720  Biso   1.000  C
  C209     1.0000 0.24135  0.12443  0.23026  Biso   1.000  C
  H165     1.0000 0.19020  0.06101  0.26140  Biso   1.000  H
  H166     1.0000 0.23078  0.09819  0.29820  Biso   1.000  H
  C210     1.0000 0.67249  0.04654  0.32964  Biso   1.000  C
  C211     1.0000 0.60622  0.00653  0.39648  Biso   1.000  C
  C212     1.0000 0.73717  0.03989  0.40590  Biso   1.000  C
  H167     1.0000 0.05978  0.18899  0.26140  Biso   1.000  H
  H168     1.0000 0.01921  0.15181  0.29820  Biso   1.000  H
  C213     1.0000 0.00864  0.12557  0.23026  Biso   1.000  C
  O71      1.0000 0.23708  0.10087  0.18482  Biso   1.000  O
  H169     1.0000 0.29009  0.14351  0.23349  Biso   1.000  H
  H170     1.0000 0.19873  0.14910  0.23431  Biso   1.000  H
  H171     1.0000 0.67289  0.05681  0.29788  Biso   1.000  H
  C214     1.0000 0.67132  0.01574  0.42457  Biso   1.000  C
  H172     1.0000 0.56232  0.99001  0.40889  Biso   1.000  H
  H173     1.0000 0.78090  0.04599  0.42482  Biso   1.000  H
  H174     1.0000 0.95989  0.10649  0.23349  Biso   1.000  H
  O72      1.0000 0.01296  0.14913  0.18482  Biso   1.000  O
  H175     1.0000 0.05132  0.10090  0.23431  Biso   1.000  H
  C215     1.0000 0.23919  0.13930  0.14830  Biso   1.000  C
  H176     1.0000 0.67079  0.00559  0.45628  Biso   1.000  H
  C216     1.0000 0.01086  0.11070  0.14830  Biso   1.000  C
  C217     1.0000 0.23919  0.11070  0.10169  Biso   1.000  C
  H177     1.0000 0.19388  0.16212  0.15051  Biso   1.000  H
  H178     1.0000 0.28577  0.16070  0.15122  Biso   1.000  H
  H179     1.0000 0.96421  0.08930  0.15122  Biso   1.000  H
  C218     1.0000 0.01086  0.13930  0.10169  Biso   1.000  C
  H180     1.0000 0.05610  0.08788  0.15051  Biso   1.000  H
  O73      1.0000 0.23708  0.14913  0.06517  Biso   1.000  O
  H181     1.0000 0.19388  0.08788  0.09948  Biso   1.000  H
  H182     1.0000 0.28577  0.08930  0.09881  Biso   1.000  H
  H183     1.0000 0.96421  0.16070  0.09881  Biso   1.000  H
  O74      1.0000 0.01296  0.10087  0.06517  Biso   1.000  O
  H184     1.0000 0.05610  0.16212  0.09948  Biso   1.000  H
  C219     1.0000 0.24135  0.12557  0.01973  Biso   1.000  C
  C220     1.0000 0.00864  0.12443  0.01973  Biso   1.000  C
  H185     1.0000 0.29009  0.10649  0.01650  Biso   1.000  H
  H186     1.0000 0.19873  0.10090  0.01572  Biso   1.000  H
  C221     1.0000 0.23650  0.16798  0.98279  Biso   1.000  C
  C222     1.0000 0.01349  0.08202  0.98279  Biso   1.000  C
  H187     1.0000 0.95989  0.14351  0.01650  Biso   1.000  H
  H188     1.0000 0.05132  0.14910  0.01572  Biso   1.000  H
  O75      1.0000 0.30434  0.20244  0.98215  Biso   1.000  O
  H189     1.0000 0.19020  0.18899  0.98859  Biso   1.000  H
  H190     1.0000 0.23078  0.15181  0.95179  Biso   1.000  H
  O76      1.0000 0.94565  0.04756  0.98215  Biso   1.000  O
  H191     1.0000 0.05978  0.06101  0.98859  Biso   1.000  H
  H192     1.0000 0.01921  0.09819  0.95179  Biso   1.000  H
  C223     1.0000 0.36826  0.18541  0.96021  Biso   1.000  C
  C224     1.0000 0.88172  0.06459  0.96021  Biso   1.000  C
  N55      1.0000 0.37107  0.13603  0.94432  Biso   1.000  N
  N56      1.0000 0.42489  0.22136  0.95737  Biso   1.000  N
  N57      1.0000 0.82509  0.02864  0.95737  Biso   1.000  N
  N58      1.0000 0.87898  0.11397  0.94432  Biso   1.000  N
  C225     1.0000 0.43914  0.12427  0.92409  Biso   1.000  C
  C226     1.0000 0.48719  0.20378  0.93451  Biso   1.000  C
  C227     1.0000 0.76286  0.04622  0.93451  Biso   1.000  C
  C228     1.0000 0.81085  0.12573  0.92409  Biso   1.000  C
  O77      1.0000 0.44352  0.07376  0.91076  Biso   1.000  O
  N59      1.0000 0.49915  0.15598  0.91659  Biso   1.000  N
  O78      1.0000 0.54405  0.23989  0.92981  Biso   1.000  O
  O79      1.0000 0.70600  0.01011  0.92981  Biso   1.000  O
  N60      1.0000 0.75083  0.09402  0.91659  Biso   1.000  N
  O80      1.0000 0.80653  0.17624  0.91076  Biso   1.000  O
  C229     1.0000 0.51363  0.05460  0.89131  Biso   1.000  C
  C230     1.0000 0.60827  0.22738  0.90044  Biso   1.000  C
  C231     1.0000 0.64172  0.02262  0.90044  Biso   1.000  C
  C232     1.0000 0.73635  0.19540  0.89131  Biso   1.000  C
  C233     1.0000 0.57750  0.04654  0.92036  Biso   1.000  C
  C234     1.0000 0.51281  0.03989  0.84412  Biso   1.000  C
  C235     1.0000 0.67249  0.20346  0.92036  Biso   1.000  C
  C236     1.0000 0.60622  0.24347  0.85351  Biso   1.000  C
  C237     1.0000 0.64376  0.00653  0.85351  Biso   1.000  C
  C238     1.0000 0.73717  0.21011  0.84412  Biso   1.000  C
  H193     1.0000 0.57709  0.05681  0.95211  Biso   1.000  H
  H194     1.0000 0.46909  0.04599  0.82521  Biso   1.000  H
  C239     1.0000 0.57873  0.01574  0.82542  Biso   1.000  C
  H195     1.0000 0.67289  0.19319  0.95211  Biso   1.000  H
  C240     1.0000 0.67132  0.23426  0.82542  Biso   1.000  C
  H196     1.0000 0.56232  0.25999  0.84110  Biso   1.000  H
  H197     1.0000 0.68772  0.99001  0.84110  Biso   1.000  H
  H198     1.0000 0.78090  0.20401  0.82521  Biso   1.000  H
  H199     1.0000 0.57919  0.00559  0.79371  Biso   1.000  H
  H200     1.0000 0.67079  0.24441  0.79371  Biso   1.000  H
  C241     1.0000 0.42127  0.76574  0.57543  Biso   1.000  C
  C242     1.0000 0.48719  0.78989  0.59410  Biso   1.000  C
  H201     1.0000 0.42081  0.75559  0.54372  Biso   1.000  H
  C243     1.0000 0.35624  0.75653  0.60352  Biso   1.000  C
  C244     1.0000 0.48637  0.80460  0.64132  Biso   1.000  C
  H202     1.0000 0.53091  0.79599  0.57518  Biso   1.000  H
  C245     1.0000 0.35828  0.77262  0.65045  Biso   1.000  C
  H203     1.0000 0.31228  0.74001  0.59111  Biso   1.000  H
  C246     1.0000 0.42250  0.79654  0.67036  Biso   1.000  C
  O81      1.0000 0.55648  0.82376  0.66076  Biso   1.000  O
  O82      1.0000 0.29400  0.76011  0.67979  Biso   1.000  O
  H204     1.0000 0.42291  0.80681  0.70212  Biso   1.000  H
  C247     1.0000 0.56086  0.87427  0.67410  Biso   1.000  C
  C248     1.0000 0.23714  0.79622  0.68452  Biso   1.000  C
  N61      1.0000 0.50085  0.90598  0.66660  Biso   1.000  N
  N62      1.0000 0.62893  0.88603  0.69429  Biso   1.000  N
  N63      1.0000 0.24917  0.84402  0.66660  Biso   1.000  N
  N64      1.0000 0.17491  0.77864  0.70738  Biso   1.000  N
  C249     1.0000 0.51281  0.95378  0.68452  Biso   1.000  C
  C250     1.0000 0.63174  0.93541  0.71022  Biso   1.000  C
  C251     1.0000 0.18915  0.87573  0.67410  Biso   1.000  C
  C252     1.0000 0.11828  0.81459  0.71022  Biso   1.000  C
  O83      1.0000 0.45595  0.98989  0.67979  Biso   1.000  O
  N65      1.0000 0.57511  0.97136  0.70738  Biso   1.000  N
  O84      1.0000 0.69566  0.95244  0.73212  Biso   1.000  O
  O85      1.0000 0.19347  0.92624  0.66076  Biso   1.000  O
  N66      1.0000 0.12102  0.86397  0.69429  Biso   1.000  N
  O86      1.0000 0.05435  0.79756  0.73212  Biso   1.000  O
  C253     1.0000 0.39173  0.97738  0.65045  Biso   1.000  C
  C254     1.0000 0.76350  0.91798  0.73280  Biso   1.000  C
  C255     1.0000 0.26365  0.94540  0.64132  Biso   1.000  C
  C256     1.0000 0.98651  0.83202  0.73280  Biso   1.000  C
  C257     1.0000 0.32751  0.95346  0.67036  Biso   1.000  C
  C258     1.0000 0.39378  0.99347  0.60352  Biso   1.000  C
  H205     1.0000 0.80980  0.93899  0.73860  Biso   1.000  H
  H206     1.0000 0.76922  0.90181  0.70180  Biso   1.000  H
  C259     1.0000 0.75865  0.87557  0.76974  Biso   1.000  C
  C260     1.0000 0.26283  0.96011  0.59410  Biso   1.000  C
  H207     1.0000 0.94022  0.81101  0.73860  Biso   1.000  H
  H208     1.0000 0.98079  0.84819  0.70180  Biso   1.000  H
  C261     1.0000 0.99136  0.87443  0.76974  Biso   1.000  C
  H209     1.0000 0.32711  0.94319  0.70212  Biso   1.000  H
  C262     1.0000 0.32868  0.98426  0.57543  Biso   1.000  C
  H210     1.0000 0.43768  0.00999  0.59111  Biso   1.000  H
  O87      1.0000 0.76292  0.89913  0.81518  Biso   1.000  O
  H211     1.0000 0.70991  0.85649  0.76651  Biso   1.000  H
  H212     1.0000 0.80127  0.85090  0.76569  Biso   1.000  H
  H213     1.0000 0.21910  0.95401  0.57518  Biso   1.000  H
  H214     1.0000 0.04011  0.89351  0.76651  Biso   1.000  H
  O88      1.0000 0.98704  0.85087  0.81518  Biso   1.000  O
  H215     1.0000 0.94868  0.89910  0.76569  Biso   1.000  H
  H216     1.0000 0.32921  0.99441  0.54372  Biso   1.000  H
  C263     1.0000 0.76081  0.86070  0.85170  Biso   1.000  C
  C264     1.0000 0.98914  0.88930  0.85170  Biso   1.000  C
  C265     1.0000 0.76081  0.88930  0.89831  Biso   1.000  C
  H217     1.0000 0.80612  0.83788  0.84949  Biso   1.000  H
  H218     1.0000 0.71423  0.83930  0.84878  Biso   1.000  H
  H219     1.0000 0.03579  0.91070  0.84878  Biso   1.000  H
  C266     1.0000 0.98914  0.86070  0.89831  Biso   1.000  C
  H220     1.0000 0.94390  0.91212  0.84949  Biso   1.000  H
  O89      1.0000 0.76292  0.85087  0.93483  Biso   1.000  O
  H221     1.0000 0.80612  0.91212  0.90052  Biso   1.000  H
  H222     1.0000 0.71423  0.91070  0.90119  Biso   1.000  H
  H223     1.0000 0.03579  0.83930  0.90119  Biso   1.000  H
  O90      1.0000 0.98704  0.89913  0.93483  Biso   1.000  O
  H224     1.0000 0.94390  0.83788  0.90052  Biso   1.000  H
  C267     1.0000 0.75865  0.87443  0.98027  Biso   1.000  C
  C268     1.0000 0.99136  0.87557  0.98027  Biso   1.000  C
  H225     1.0000 0.70991  0.89351  0.98350  Biso   1.000  H
  H226     1.0000 0.80127  0.89910  0.98428  Biso   1.000  H
  C269     1.0000 0.76350  0.83202  0.01721  Biso   1.000  C
  H227     1.0000 0.04011  0.85649  0.98350  Biso   1.000  H
  H228     1.0000 0.94868  0.85090  0.98428  Biso   1.000  H
  C270     1.0000 0.98651  0.91798  0.01721  Biso   1.000  C
  O91      1.0000 0.69566  0.79756  0.01785  Biso   1.000  O
  H229     1.0000 0.80980  0.81101  0.01141  Biso   1.000  H
  H230     1.0000 0.76922  0.84819  0.04821  Biso   1.000  H
  H231     1.0000 0.94022  0.93899  0.01141  Biso   1.000  H
  H232     1.0000 0.98079  0.90181  0.04821  Biso   1.000  H
  O92      1.0000 0.05435  0.95244  0.01785  Biso   1.000  O
  C271     1.0000 0.63174  0.81459  0.03979  Biso   1.000  C
  C272     1.0000 0.11828  0.93541  0.03979  Biso   1.000  C
  N67      1.0000 0.62893  0.86397  0.05568  Biso   1.000  N
  N68      1.0000 0.57511  0.77864  0.04263  Biso   1.000  N
  N69      1.0000 0.12102  0.88603  0.05568  Biso   1.000  N
  N70      1.0000 0.17491  0.97136  0.04263  Biso   1.000  N
  C273     1.0000 0.56086  0.87573  0.07591  Biso   1.000  C
  C274     1.0000 0.51281  0.79622  0.06549  Biso   1.000  C
  C275     1.0000 0.18915  0.87427  0.07591  Biso   1.000  C
  C276     1.0000 0.23714  0.95378  0.06549  Biso   1.000  C
  O93      1.0000 0.55648  0.92624  0.08924  Biso   1.000  O
  N71      1.0000 0.50085  0.84402  0.08341  Biso   1.000  N
  O94      1.0000 0.45595  0.76011  0.07019  Biso   1.000  O
  O95      1.0000 0.19347  0.82376  0.08924  Biso   1.000  O
  N72      1.0000 0.24917  0.90598  0.08341  Biso   1.000  N
  O96      1.0000 0.29400  0.98989  0.07019  Biso   1.000  O
  C277     1.0000 0.48637  0.94540  0.10869  Biso   1.000  C
  C278     1.0000 0.39173  0.77262  0.09956  Biso   1.000  C
  C279     1.0000 0.26365  0.80460  0.10869  Biso   1.000  C
  C280     1.0000 0.35828  0.97738  0.09956  Biso   1.000  C
  C281     1.0000 0.42250  0.95346  0.07964  Biso   1.000  C
  C282     1.0000 0.48719  0.96011  0.15588  Biso   1.000  C
  C283     1.0000 0.32751  0.79654  0.07964  Biso   1.000  C
  C284     1.0000 0.39378  0.75653  0.14649  Biso   1.000  C
  C285     1.0000 0.26283  0.78989  0.15588  Biso   1.000  C
  C286     1.0000 0.35624  0.99347  0.14649  Biso   1.000  C
  H233     1.0000 0.42291  0.94319  0.04789  Biso   1.000  H
  H234     1.0000 0.53091  0.95401  0.17479  Biso   1.000  H
  C287     1.0000 0.42127  0.98426  0.17458  Biso   1.000  C
  H235     1.0000 0.32711  0.80681  0.04789  Biso   1.000  H
  C288     1.0000 0.32868  0.76574  0.17458  Biso   1.000  C
  H236     1.0000 0.43768  0.74001  0.15890  Biso   1.000  H
  H237     1.0000 0.21910  0.79599  0.17479  Biso   1.000  H
  H238     1.0000 0.31228  0.00999  0.15890  Biso   1.000  H
  H239     1.0000 0.42081  0.99441  0.20629  Biso   1.000  H
  H240     1.0000 0.32921  0.75559  0.20629  Biso   1.000  H
  O97      1.0000 0.69350  0.82376  0.58923  Biso   1.000  O
  C289     1.0000 0.68912  0.87427  0.57589  Biso   1.000  C
  C290     1.0000 0.76368  0.80460  0.60868  Biso   1.000  C
  N73      1.0000 0.62105  0.88603  0.55570  Biso   1.000  N
  N74      1.0000 0.74914  0.90598  0.58340  Biso   1.000  N
  C291     1.0000 0.82749  0.79654  0.57963  Biso   1.000  C
  C292     1.0000 0.76280  0.78989  0.65589  Biso   1.000  C
  C293     1.0000 0.61831  0.93541  0.53977  Biso   1.000  C
  C294     1.0000 0.73717  0.95378  0.56548  Biso   1.000  C
  C295     1.0000 0.89170  0.77262  0.59957  Biso   1.000  C
  H241     1.0000 0.82708  0.80681  0.54791  Biso   1.000  H
  H242     1.0000 0.71907  0.79599  0.67481  Biso   1.000  H
  C296     1.0000 0.82871  0.76574  0.67456  Biso   1.000  C
  O98      1.0000 0.55432  0.95244  0.51787  Biso   1.000  O
  N75      1.0000 0.67494  0.97136  0.54261  Biso   1.000  N
  O99      1.0000 0.79403  0.98989  0.57020  Biso   1.000  O
  O100     1.0000 0.95598  0.76011  0.57020  Biso   1.000  O
  C297     1.0000 0.89375  0.75653  0.64651  Biso   1.000  C
  H243     1.0000 0.82918  0.75559  0.70631  Biso   1.000  H
  C298     1.0000 0.48648  0.91798  0.51719  Biso   1.000  C
  C299     1.0000 0.85831  0.97738  0.59957  Biso   1.000  C
  C300     1.0000 0.01284  0.79622  0.56548  Biso   1.000  C
  H244     1.0000 0.93771  0.74001  0.65892  Biso   1.000  H
  C301     1.0000 0.49139  0.87557  0.48025  Biso   1.000  C
  H245     1.0000 0.44019  0.93899  0.51140  Biso   1.000  H
  H246     1.0000 0.48082  0.90181  0.54820  Biso   1.000  H
  C302     1.0000 0.92253  0.95346  0.57963  Biso   1.000  C
  C303     1.0000 0.85621  0.99347  0.64651  Biso   1.000  C
  N76      1.0000 0.00082  0.84402  0.58340  Biso   1.000  N
  N77      1.0000 0.07508  0.77864  0.54261  Biso   1.000  N
  O101     1.0000 0.48707  0.89913  0.43484  Biso   1.000  O
  H247     1.0000 0.54008  0.85649  0.48348  Biso   1.000  H
  H248     1.0000 0.44871  0.85090  0.48430  Biso   1.000  H
  H249     1.0000 0.92288  0.94319  0.54791  Biso   1.000  H
  C304     1.0000 0.98634  0.94540  0.60868  Biso   1.000  C
  C305     1.0000 0.92130  0.98426  0.67456  Biso   1.000  C
  H250     1.0000 0.81231  0.00999  0.65892  Biso   1.000  H
  C306     1.0000 0.06089  0.87573  0.57589  Biso   1.000  C
  C307     1.0000 0.13171  0.81459  0.53977  Biso   1.000  C
  C308     1.0000 0.48917  0.86070  0.39829  Biso   1.000  C
  C309     1.0000 0.98721  0.96011  0.65589  Biso   1.000  C
  O102     1.0000 0.05651  0.92624  0.58923  Biso   1.000  O
  H251     1.0000 0.92078  0.99441  0.70631  Biso   1.000  H
  N78      1.0000 0.12896  0.86397  0.55570  Biso   1.000  N
  O103     1.0000 0.19563  0.79756  0.51787  Biso   1.000  O
  C310     1.0000 0.48917  0.88930  0.35168  Biso   1.000  C
  H252     1.0000 0.44393  0.83788  0.40050  Biso   1.000  H
  H253     1.0000 0.53582  0.83930  0.40121  Biso   1.000  H
  H254     1.0000 0.03088  0.95401  0.67481  Biso   1.000  H
  C311     1.0000 0.26353  0.83202  0.51719  Biso   1.000  C
  O104     1.0000 0.48707  0.85087  0.31516  Biso   1.000  O
  H255     1.0000 0.44393  0.91212  0.34951  Biso   1.000  H
  H256     1.0000 0.53582  0.91070  0.34880  Biso   1.000  H
  C312     1.0000 0.25863  0.87443  0.48025  Biso   1.000  C
  H257     1.0000 0.30983  0.81101  0.51140  Biso   1.000  H
  H258     1.0000 0.26919  0.84819  0.54820  Biso   1.000  H
  C313     1.0000 0.49139  0.87443  0.26972  Biso   1.000  C
  O105     1.0000 0.26295  0.85087  0.43484  Biso   1.000  O
  H259     1.0000 0.20988  0.89351  0.48348  Biso   1.000  H
  H260     1.0000 0.30130  0.89910  0.48430  Biso   1.000  H
  C314     1.0000 0.48648  0.83202  0.23282  Biso   1.000  C
  H261     1.0000 0.54008  0.89351  0.26649  Biso   1.000  H
  H262     1.0000 0.44871  0.89910  0.26571  Biso   1.000  H
  C315     1.0000 0.26084  0.88930  0.39829  Biso   1.000  C
  O106     1.0000 0.55432  0.79756  0.23214  Biso   1.000  O
  H263     1.0000 0.44019  0.81101  0.23861  Biso   1.000  H
  H264     1.0000 0.48082  0.84819  0.20181  Biso   1.000  H
  C316     1.0000 0.26084  0.86070  0.35168  Biso   1.000  C
  H265     1.0000 0.30609  0.91212  0.40050  Biso   1.000  H
  H266     1.0000 0.21420  0.91070  0.40121  Biso   1.000  H
  C317     1.0000 0.61831  0.81459  0.21024  Biso   1.000  C
  O107     1.0000 0.26295  0.89913  0.31516  Biso   1.000  O
  H267     1.0000 0.30609  0.83788  0.34951  Biso   1.000  H
  H268     1.0000 0.21420  0.83930  0.34880  Biso   1.000  H
  N79      1.0000 0.62105  0.86397  0.19431  Biso   1.000  N
  N80      1.0000 0.67494  0.77864  0.20740  Biso   1.000  N
  C318     1.0000 0.25863  0.87557  0.26972  Biso   1.000  C
  C319     1.0000 0.68912  0.87573  0.17412  Biso   1.000  C
  C320     1.0000 0.73717  0.79622  0.18450  Biso   1.000  C
  C321     1.0000 0.26353  0.91798  0.23282  Biso   1.000  C
  H269     1.0000 0.20988  0.85649  0.26649  Biso   1.000  H
  H270     1.0000 0.30130  0.85090  0.26571  Biso   1.000  H
  O108     1.0000 0.69350  0.92624  0.16078  Biso   1.000  O
  N81      1.0000 0.74914  0.84402  0.16658  Biso   1.000  N
  O109     1.0000 0.79403  0.76011  0.17980  Biso   1.000  O
  O110     1.0000 0.19563  0.95244  0.23214  Biso   1.000  O
  H271     1.0000 0.30983  0.93899  0.23861  Biso   1.000  H
  H272     1.0000 0.26919  0.90181  0.20181  Biso   1.000  H
  C322     1.0000 0.76368  0.94540  0.14133  Biso   1.000  C
  C323     1.0000 0.85831  0.77262  0.15044  Biso   1.000  C
  C324     1.0000 0.13171  0.93541  0.21024  Biso   1.000  C
  C325     1.0000 0.82749  0.95346  0.17038  Biso   1.000  C
  C326     1.0000 0.76280  0.96011  0.09412  Biso   1.000  C
  C327     1.0000 0.92253  0.79654  0.17038  Biso   1.000  C
  C328     1.0000 0.85621  0.75653  0.10350  Biso   1.000  C
  N82      1.0000 0.07508  0.97136  0.20740  Biso   1.000  N
  N83      1.0000 0.12896  0.88603  0.19431  Biso   1.000  N
  C329     1.0000 0.89170  0.97738  0.15044  Biso   1.000  C
  H273     1.0000 0.82708  0.94319  0.20210  Biso   1.000  H
  H274     1.0000 0.71907  0.95401  0.07520  Biso   1.000  H
  C330     1.0000 0.82871  0.98426  0.07545  Biso   1.000  C
  H275     1.0000 0.92288  0.80681  0.20210  Biso   1.000  H
  C331     1.0000 0.98634  0.80460  0.14133  Biso   1.000  C
  C332     1.0000 0.92130  0.76574  0.07545  Biso   1.000  C
  H276     1.0000 0.81231  0.74001  0.09109  Biso   1.000  H
  C333     1.0000 0.01284  0.95378  0.18450  Biso   1.000  C
  C334     1.0000 0.06089  0.87427  0.17412  Biso   1.000  C
  O111     1.0000 0.95598  0.98989  0.17980  Biso   1.000  O
  C335     1.0000 0.89375  0.99347  0.10350  Biso   1.000  C
  H277     1.0000 0.82918  0.99441  0.04370  Biso   1.000  H
  C336     1.0000 0.98721  0.78989  0.09412  Biso   1.000  C
  O112     1.0000 0.05651  0.82376  0.16078  Biso   1.000  O
  H278     1.0000 0.92078  0.75559  0.04370  Biso   1.000  H
  N84      1.0000 0.00082  0.90598  0.16658  Biso   1.000  N
  H279     1.0000 0.93771  0.00999  0.09109  Biso   1.000  H
  H280     1.0000 0.03088  0.79599  0.07520  Biso   1.000  H
  O113     1.0000 0.30650  0.17624  0.41077  Biso   1.000  O
  C337     1.0000 0.23632  0.19540  0.39132  Biso   1.000  C
  C338     1.0000 0.31088  0.12573  0.42411  Biso   1.000  C
  C339     1.0000 0.23720  0.21011  0.34411  Biso   1.000  C
  C340     1.0000 0.17251  0.20346  0.42037  Biso   1.000  C
  N85      1.0000 0.25086  0.09402  0.41660  Biso   1.000  N
  N86      1.0000 0.37895  0.11397  0.44430  Biso   1.000  N
  C341     1.0000 0.17129  0.23426  0.32544  Biso   1.000  C
  H281     1.0000 0.28093  0.20401  0.32519  Biso   1.000  H
  C342     1.0000 0.10830  0.22738  0.40043  Biso   1.000  C
  H282     1.0000 0.17292  0.19319  0.45209  Biso   1.000  H
  C343     1.0000 0.26283  0.04622  0.43452  Biso   1.000  C
  C344     1.0000 0.38169  0.06459  0.46023  Biso   1.000  C
  H283     1.0000 0.17082  0.24441  0.29369  Biso   1.000  H
  C345     1.0000 0.10625  0.24347  0.35349  Biso   1.000  C
  O114     1.0000 0.04402  0.23989  0.42980  Biso   1.000  O
  O115     1.0000 0.20597  0.01011  0.42980  Biso   1.000  O
  N87      1.0000 0.32506  0.02864  0.45739  Biso   1.000  N
  O116     1.0000 0.44568  0.04756  0.48213  Biso   1.000  O
  H284     1.0000 0.06229  0.25999  0.34108  Biso   1.000  H
  C346     1.0000 0.98716  0.20378  0.43452  Biso   1.000  C
  C347     1.0000 0.14169  0.02262  0.40043  Biso   1.000  C
  C348     1.0000 0.51352  0.08202  0.48281  Biso   1.000  C
  N88      1.0000 0.99918  0.15598  0.41660  Biso   1.000  N
  N89      1.0000 0.92492  0.22136  0.45739  Biso   1.000  N
  C349     1.0000 0.07747  0.04654  0.42037  Biso   1.000  C
  C350     1.0000 0.14379  0.00653  0.35349  Biso   1.000  C
  H285     1.0000 0.55981  0.06101  0.48860  Biso   1.000  H
  H286     1.0000 0.51918  0.09819  0.45180  Biso   1.000  H
  C351     1.0000 0.50861  0.12443  0.51975  Biso   1.000  C
  C352     1.0000 0.93911  0.12427  0.42411  Biso   1.000  C
  C353     1.0000 0.86829  0.18541  0.46023  Biso   1.000  C
  C354     1.0000 0.01366  0.05460  0.39132  Biso   1.000  C
  H287     1.0000 0.07712  0.05681  0.45209  Biso   1.000  H
  C355     1.0000 0.07870  0.01574  0.32544  Biso   1.000  C
  H288     1.0000 0.18769  0.99001  0.34108  Biso   1.000  H
  O117     1.0000 0.51293  0.10087  0.56516  Biso   1.000  O
  H289     1.0000 0.45992  0.14351  0.51652  Biso   1.000  H
  H290     1.0000 0.55129  0.14910  0.51570  Biso   1.000  H
  O118     1.0000 0.94349  0.07376  0.41077  Biso   1.000  O
  N90      1.0000 0.87104  0.13603  0.44430  Biso   1.000  N
  O119     1.0000 0.80437  0.20244  0.48213  Biso   1.000  O
  C356     1.0000 0.01279  0.03989  0.34411  Biso   1.000  C
  H291     1.0000 0.07922  0.00559  0.29369  Biso   1.000  H
  C357     1.0000 0.51083  0.13930  0.60171  Biso   1.000  C
  C358     1.0000 0.73647  0.16798  0.48281  Biso   1.000  C
  H292     1.0000 0.96912  0.04599  0.32519  Biso   1.000  H
  H293     1.0000 0.55607  0.16212  0.59950  Biso   1.000  H
  H294     1.0000 0.46418  0.16070  0.59879  Biso   1.000  H
  C359     1.0000 0.51083  0.11070  0.64832  Biso   1.000  C
  H295     1.0000 0.69017  0.18899  0.48860  Biso   1.000  H
  H296     1.0000 0.73081  0.15181  0.45180  Biso   1.000  H
  C360     1.0000 0.74137  0.12557  0.51975  Biso   1.000  C
  O120     1.0000 0.51293  0.14913  0.68484  Biso   1.000  O
  H297     1.0000 0.55607  0.08788  0.65049  Biso   1.000  H
  H298     1.0000 0.46418  0.08930  0.65120  Biso   1.000  H
  O121     1.0000 0.73705  0.14913  0.56516  Biso   1.000  O
  H299     1.0000 0.79012  0.10649  0.51652  Biso   1.000  H
  H300     1.0000 0.69870  0.10090  0.51570  Biso   1.000  H
  C361     1.0000 0.50861  0.12557  0.73028  Biso   1.000  C
  C362     1.0000 0.73916  0.11070  0.60171  Biso   1.000  C
  C363     1.0000 0.51352  0.16798  0.76722  Biso   1.000  C
  H301     1.0000 0.45992  0.10649  0.73351  Biso   1.000  H
  H302     1.0000 0.55129  0.10090  0.73429  Biso   1.000  H
  H303     1.0000 0.69391  0.08788  0.59950  Biso   1.000  H
  H304     1.0000 0.78580  0.08930  0.59879  Biso   1.000  H
  C364     1.0000 0.73916  0.13930  0.64832  Biso   1.000  C
  O122     1.0000 0.44568  0.20244  0.76786  Biso   1.000  O
  H305     1.0000 0.55981  0.18899  0.76139  Biso   1.000  H
  H306     1.0000 0.51918  0.15181  0.79819  Biso   1.000  H
  O123     1.0000 0.73705  0.10087  0.68484  Biso   1.000  O
  H307     1.0000 0.69391  0.16212  0.65049  Biso   1.000  H
  H308     1.0000 0.78580  0.16070  0.65120  Biso   1.000  H
  C365     1.0000 0.38169  0.18541  0.78976  Biso   1.000  C
  C366     1.0000 0.74137  0.12443  0.73028  Biso   1.000  C
  N91      1.0000 0.37895  0.13603  0.80569  Biso   1.000  N
  N92      1.0000 0.32506  0.22136  0.79260  Biso   1.000  N
  C367     1.0000 0.73647  0.08202  0.76722  Biso   1.000  C
  H309     1.0000 0.79012  0.14351  0.73351  Biso   1.000  H
  H310     1.0000 0.69870  0.14910  0.73429  Biso   1.000  H
  C368     1.0000 0.31088  0.12427  0.82588  Biso   1.000  C
  C369     1.0000 0.26283  0.20378  0.81550  Biso   1.000  C
  O124     1.0000 0.80437  0.04756  0.76786  Biso   1.000  O
  H311     1.0000 0.69017  0.06101  0.76139  Biso   1.000  H
  H312     1.0000 0.73081  0.09819  0.79819  Biso   1.000  H
  O125     1.0000 0.30650  0.07376  0.83922  Biso   1.000  O
  N93      1.0000 0.25086  0.15598  0.83342  Biso   1.000  N
  O126     1.0000 0.20597  0.23989  0.82020  Biso   1.000  O
  C370     1.0000 0.86829  0.06459  0.78976  Biso   1.000  C
  C371     1.0000 0.23632  0.05460  0.85867  Biso   1.000  C
  C372     1.0000 0.14169  0.22738  0.84956  Biso   1.000  C
  N94      1.0000 0.87104  0.11397  0.80569  Biso   1.000  N
  N95      1.0000 0.92492  0.02864  0.79260  Biso   1.000  N
  C373     1.0000 0.17251  0.04654  0.82962  Biso   1.000  C
  C374     1.0000 0.23720  0.03989  0.90588  Biso   1.000  C
  C375     1.0000 0.07747  0.20346  0.82962  Biso   1.000  C
  C376     1.0000 0.14379  0.24347  0.89650  Biso   1.000  C
  C377     1.0000 0.93911  0.12573  0.82588  Biso   1.000  C
  C378     1.0000 0.98716  0.04622  0.81550  Biso   1.000  C
  C379     1.0000 0.10830  0.02262  0.84956  Biso   1.000  C
  H313     1.0000 0.17292  0.05681  0.79790  Biso   1.000  H
  H314     1.0000 0.28093  0.04599  0.92480  Biso   1.000  H
  C380     1.0000 0.17129  0.01574  0.92455  Biso   1.000  C
  C381     1.0000 0.01366  0.19540  0.85867  Biso   1.000  C
  H315     1.0000 0.07712  0.19319  0.79790  Biso   1.000  H
  C382     1.0000 0.07870  0.23426  0.92455  Biso   1.000  C
  H316     1.0000 0.18769  0.25999  0.90891  Biso   1.000  H
  O127     1.0000 0.94349  0.17624  0.83922  Biso   1.000  O
  N96      1.0000 0.99918  0.09402  0.83342  Biso   1.000  N
  O128     1.0000 0.04402  0.01011  0.82020  Biso   1.000  O
  C383     1.0000 0.10625  0.00653  0.89650  Biso   1.000  C
  H317     1.0000 0.17082  0.00559  0.95630  Biso   1.000  H
  C384     1.0000 0.01279  0.21011  0.90588  Biso   1.000  C
  H318     1.0000 0.07922  0.24441  0.95630  Biso   1.000  H
  H319     1.0000 0.06229  0.99001  0.90891  Biso   1.000  H
  H320     1.0000 0.96912  0.20401  0.92480  Biso   1.000  H
  Ne1      1.0000 0.37500  0.37500  0.37500  Biso   1.000  Ne
  He1      1.0000 0.34368  0.29947  0.37179  Biso   1.000  He
  He2      1.0000 0.34343  0.44787  0.37825  Biso   1.000  He
  Ar1      1.0000 0.37500  0.37500  0.37500  Biso   1.000  Ar
  Ne2      1.0000 0.12500  0.12500  0.62500  Biso   1.000  Ne
  He3      1.0000 0.15658  0.05218  0.62175  Biso   1.000  He
  He4      1.0000 0.15689  0.19608  0.62827  Biso   1.000  He
  Ar2      1.0000 0.12500  0.12500  0.62500  Biso   1.000  Ar
  Ne3      1.0000 0.62500  0.12500  0.12500  Biso   1.000  Ne
  He5      1.0000 0.65667  0.05217  0.12174  Biso   1.000  He
  He6      1.0000 0.65688  0.19608  0.12827  Biso   1.000  He
  Ar3      1.0000 0.62500  0.12500  0.12500  Biso   1.000  Ar
  Ne4      1.0000 0.12500  0.62500  0.12500  Biso   1.000  Ne
  He7      1.0000 0.15667  0.55217  0.12174  Biso   1.000  He
  He8      1.0000 0.15689  0.69608  0.12827  Biso   1.000  He
  Ar4      1.0000 0.12502  0.62500  0.12500  Biso   1.000  Ar
  Ne5      1.0000 0.62500  0.62500  0.62500  Biso   1.000  Ne
  He9      1.0000 0.65658  0.55218  0.62175  Biso   1.000  He
  He10     1.0000 0.65688  0.69608  0.62827  Biso   1.000  He
  Ar5      1.0000 0.62500  0.62500  0.62500  Biso   1.000  Ar
  Ne6      1.0000 0.87500  0.37500  0.87500  Biso   1.000  Ne
  He11     1.0000 0.84368  0.29947  0.87179  Biso   1.000  He
  He12     1.0000 0.84334  0.44787  0.87826  Biso   1.000  He
  Ar6      1.0000 0.87500  0.37500  0.87500  Biso   1.000  Ar
  Ne7      1.0000 0.87500  0.87500  0.37500  Biso   1.000  Ne
  He13     1.0000 0.84368  0.79947  0.37179  Biso   1.000  He
  He14     1.0000 0.84343  0.94786  0.37825  Biso   1.000  He
  Ar7      1.0000 0.87500  0.87500  0.37500  Biso   1.000  Ar
  Ne8      1.0000 0.37500  0.87500  0.87500  Biso   1.000  Ne
  He15     1.0000 0.34368  0.79947  0.87178  Biso   1.000  He
  He16     1.0000 0.34333  0.94788  0.87826  Biso   1.000  He
  Ar8      1.0000 0.37500  0.87500  0.87500  Biso   1.000  Ar
