data_image0
_cell_length_a       41.954
_cell_length_b       18.384
_cell_length_c       18.203
_cell_angle_alpha    90
_cell_angle_beta     113.53
_cell_angle_gamma    90

_symmetry_space_group_name_H-M    "P 1"
_symmetry_int_tables_number       1

loop_
  _symmetry_equiv_pos_as_xyz
  'x, y, z'

loop_
  _atom_site_label
  _atom_site_occupancy
  _atom_site_fract_x
  _atom_site_fract_y
  _atom_site_fract_z
  _atom_site_thermal_displace_type
  _atom_site_B_iso_or_equiv
  _atom_site_type_symbol
  C1       1.0000 0.57979  0.56712  0.58091  Biso   1.000  C
  C2       1.0000 0.60019  0.54248  0.66647  Biso   1.000  C
  O1       1.0000 0.57520  0.63822  0.57090  Biso   1.000  O
  H1       1.0000 0.59169  0.55010  0.54819  Biso   1.000  H
  H2       1.0000 0.55719  0.54390  0.56119  Biso   1.000  H
  O2       1.0000 0.58160  0.57191  0.71081  Biso   1.000  O
  H3       1.0000 0.60097  0.48977  0.66988  Biso   1.000  H
  H4       1.0000 0.62367  0.56119  0.68660  Biso   1.000  H
  C3       1.0000 0.60458  0.66678  0.59079  Biso   1.000  C
  C4       1.0000 0.59949  0.68821  0.54490  Biso   1.000  C
  C5       1.0000 0.58908  0.54781  0.78427  Biso   1.000  C
  C6       1.0000 0.59988  0.74369  0.55418  Biso   1.000  C
  H5       1.0000 0.61888  0.63762  0.57138  Biso   1.000  H
  H6       1.0000 0.61608  0.66971  0.64867  Biso   1.000  H
  H7       1.0000 0.62328  0.67678  0.58001  Biso   1.000  H
  H8       1.0000 0.59639  0.67341  0.49127  Biso   1.000  H
  C7       1.0000 0.59568  0.77257  0.54400  Biso   1.000  C
  N1       1.0000 0.56876  0.57670  0.81788  Biso   1.000  N
  N2       1.0000 0.61458  0.50005  0.81698  Biso   1.000  N
  O3       1.0000 0.60509  0.78209  0.62860  Biso   1.000  O
  H9       1.0000 0.61748  0.75560  0.53417  Biso   1.000  H
  H10      1.0000 0.57688  0.75131  0.51266  Biso   1.000  H
  H11      1.0000 0.61898  0.78998  0.57599  Biso   1.000  H
  O4       1.0000 0.57358  0.81810  0.56527  Biso   1.000  O
  H12      1.0000 0.59129  0.78628  0.48917  Biso   1.000  H
  C8       1.0000 0.57604  0.55162  0.89020  Biso   1.000  C
  C9       1.0000 0.61854  0.48069  0.89086  Biso   1.000  C
  C10      1.0000 0.59838  0.86118  0.62177  Biso   1.000  C
  H13      1.0000 0.61987  0.83817  0.62626  Biso   1.000  H
  H14      1.0000 0.57408  0.87070  0.58870  Biso   1.000  H
  O5       1.0000 0.55724  0.57555  0.93011  Biso   1.000  O
  N3       1.0000 0.60049  0.50348  0.93077  Biso   1.000  N
  O6       1.0000 0.64381  0.43250  0.93083  Biso   1.000  O
  C11      1.0000 0.60754  0.88931  0.70518  Biso   1.000  C
  H15      1.0000 0.61249  0.88479  0.59768  Biso   1.000  H
  H16      1.0000 0.59718  0.90568  0.59199  Biso   1.000  H
  C12      1.0000 0.53607  0.63800  0.90039  Biso   1.000  C
  C13      1.0000 0.66533  0.40639  0.89338  Biso   1.000  C
  O7       1.0000 0.58271  0.85819  0.73328  Biso   1.000  O
  H17      1.0000 0.63097  0.87478  0.73987  Biso   1.000  H
  H18      1.0000 0.60620  0.94201  0.70500  Biso   1.000  H
  C14      1.0000 0.50091  0.63049  0.85701  Biso   1.000  C
  C15      1.0000 0.55150  0.70469  0.92298  Biso   1.000  C
  C16      1.0000 0.65592  0.34568  0.84718  Biso   1.000  C
  C17      1.0000 0.69681  0.44218  0.91010  Biso   1.000  C
  C18      1.0000 0.58501  0.87951  0.80476  Biso   1.000  C
  H19      1.0000 0.49099  0.58480  0.84161  Biso   1.000  H
  C19      1.0000 0.48045  0.69310  0.83646  Biso   1.000  C
  C20      1.0000 0.53016  0.76529  0.90177  Biso   1.000  C
  H20      1.0000 0.57539  0.70899  0.95138  Biso   1.000  H
  C21      1.0000 0.67804  0.31832  0.81471  Biso   1.000  C
  H21      1.0000 0.63488  0.32289  0.83760  Biso   1.000  H
  C22      1.0000 0.71797  0.41400  0.87570  Biso   1.000  C
  H22      1.0000 0.70318  0.48308  0.94287  Biso   1.000  H
  N4       1.0000 0.56342  0.84280  0.82957  Biso   1.000  N
  N5       1.0000 0.60678  0.93331  0.84389  Biso   1.000  N
  H23      1.0000 0.45658  0.68881  0.80710  Biso   1.000  H
  C23      1.0000 0.49479  0.76050  0.85887  Biso   1.000  C
  O8       1.0000 0.54489  0.83393  0.93233  Biso   1.000  O
  C24      1.0000 0.70969  0.35161  0.82951  Biso   1.000  C
  H24      1.0000 0.67169  0.27709  0.78259  Biso   1.000  H
  O9       1.0000 0.75018  0.44735  0.89032  Biso   1.000  O
  C25      1.0000 0.56558  0.86521  0.89997  Biso   1.000  C
  C26      1.0000 0.60538  0.94822  0.91357  Biso   1.000  C
  H25      1.0000 0.48099  0.80200  0.84550  Biso   1.000  H
  H26      1.0000 0.72487  0.33252  0.80889  Biso   1.000  H
  C27      1.0000 0.75040  0.50103  0.83927  Biso   1.000  C
  N6       1.0000 0.58584  0.91759  0.94719  Biso   1.000  N
  O10      1.0000 0.62653  0.00022  0.96013  Biso   1.000  O
  N7       1.0000 0.78203  0.52263  0.85018  Biso   1.000  N
  N8       1.0000 0.72020  0.52529  0.78619  Biso   1.000  N
  C28      1.0000 0.64773  0.03780  0.93017  Biso   1.000  C
  C29      1.0000 0.78204  0.57561  0.80039  Biso   1.000  C
  C30      1.0000 0.72457  0.58067  0.74340  Biso   1.000  C
  C31      1.0000 0.63655  0.10618  0.89787  Biso   1.000  C
  C32      1.0000 0.67934  0.01001  0.93790  Biso   1.000  C
  O11      1.0000 0.81139  0.60058  0.79949  Biso   1.000  O
  N9       1.0000 0.75388  0.60825  0.74574  Biso   1.000  N
  O12      1.0000 0.69411  0.61015  0.69307  Biso   1.000  O
  H27      1.0000 0.61497  0.12418  0.89218  Biso   1.000  H
  C33      1.0000 0.65871  0.14681  0.87427  Biso   1.000  C
  H28      1.0000 0.68647  0.96421  0.95995  Biso   1.000  H
  C34      1.0000 0.70003  0.05140  0.91219  Biso   1.000  C
  C35      1.0000 0.84397  0.57071  0.85449  Biso   1.000  C
  C36      1.0000 0.69582  0.68010  0.66168  Biso   1.000  C
  H29      1.0000 0.65198  0.19321  0.85329  Biso   1.000  H
  C37      1.0000 0.69056  0.11978  0.88146  Biso   1.000  C
  O13      1.0000 0.73357  0.02665  0.92292  Biso   1.000  O
  C38      1.0000 0.87082  0.59421  0.82459  Biso   1.000  C
  H30      1.0000 0.84267  0.51811  0.85557  Biso   1.000  H
  H31      1.0000 0.84957  0.58910  0.90818  Biso   1.000  H
  C39      1.0000 0.69850  0.68690  0.58947  Biso   1.000  C
  C40      1.0000 0.69270  0.73901  0.70530  Biso   1.000  C
  H32      1.0000 0.70526  0.14757  0.86576  Biso   1.000  H
  C41      1.0000 0.73662  0.97400  0.87480  Biso   1.000  C
  O14      1.0000 0.87284  0.67107  0.81710  Biso   1.000  O
  H33      1.0000 0.89337  0.57632  0.86108  Biso   1.000  H
  H34      1.0000 0.86558  0.57202  0.77270  Biso   1.000  H
  C42      1.0000 0.69762  0.75582  0.55910  Biso   1.000  C
  H35      1.0000 0.70088  0.64621  0.56179  Biso   1.000  H
  C43      1.0000 0.69218  0.80739  0.67270  Biso   1.000  C
  H36      1.0000 0.69097  0.73308  0.75437  Biso   1.000  H
  N10      1.0000 0.70816  0.94854  0.81656  Biso   1.000  N
  N11      1.0000 0.76954  0.95523  0.89308  Biso   1.000  N
  C44      1.0000 0.89822  0.70529  0.88505  Biso   1.000  C
  C45      1.0000 0.69423  0.81712  0.59990  Biso   1.000  C
  H37      1.0000 0.69929  0.76142  0.50996  Biso   1.000  H
  O15      1.0000 0.68723  0.86847  0.71416  Biso   1.000  O
  C46      1.0000 0.71535  0.89589  0.77480  Biso   1.000  C
  C47      1.0000 0.77288  0.90182  0.84658  Biso   1.000  C
  C48      1.0000 0.89541  0.78612  0.87666  Biso   1.000  C
  H38      1.0000 0.92127  0.69000  0.89086  Biso   1.000  H
  H39      1.0000 0.89508  0.69060  0.93287  Biso   1.000  H
  H40      1.0000 0.69338  0.86331  0.57851  Biso   1.000  H
  N12      1.0000 0.74626  0.86907  0.78625  Biso   1.000  N
  O16      1.0000 0.80330  0.87734  0.85491  Biso   1.000  O
  O17      1.0000 0.86861  0.81081  0.89991  Biso   1.000  O
  H41      1.0000 0.91739  0.80842  0.91028  Biso   1.000  H
  H42      1.0000 0.88997  0.79972  0.82148  Biso   1.000  H
  C49      1.0000 0.83463  0.90992  0.91399  Biso   1.000  C
  C50      1.0000 0.86391  0.88680  0.89200  Biso   1.000  C
  H43      1.0000 0.83847  0.89300  0.96738  Biso   1.000  H
  H44      1.0000 0.83267  0.96252  0.91285  Biso   1.000  H
  H45      1.0000 0.85887  0.90100  0.83706  Biso   1.000  H
  H46      1.0000 0.88508  0.91112  0.92657  Biso   1.000  H
  C51      1.0000 0.42018  0.43288  0.41907  Biso   1.000  C
  C52      1.0000 0.39979  0.45752  0.33350  Biso   1.000  C
  O18      1.0000 0.42478  0.36178  0.42907  Biso   1.000  O
  H47      1.0000 0.40828  0.44990  0.45178  Biso   1.000  H
  H48      1.0000 0.44279  0.45610  0.43878  Biso   1.000  H
  O19      1.0000 0.41837  0.42809  0.28916  Biso   1.000  O
  H49      1.0000 0.39898  0.51023  0.33009  Biso   1.000  H
  H50      1.0000 0.37628  0.43881  0.31337  Biso   1.000  H
  C53      1.0000 0.39540  0.33322  0.40918  Biso   1.000  C
  C54      1.0000 0.40049  0.31179  0.45508  Biso   1.000  C
  C55      1.0000 0.41089  0.45219  0.21571  Biso   1.000  C
  C56      1.0000 0.40010  0.25631  0.44579  Biso   1.000  C
  H51      1.0000 0.38110  0.36238  0.42859  Biso   1.000  H
  H52      1.0000 0.38390  0.33029  0.35130  Biso   1.000  H
  H53      1.0000 0.37667  0.32322  0.41997  Biso   1.000  H
  C57      1.0000 0.40429  0.22743  0.45598  Biso   1.000  C
  H54      1.0000 0.40358  0.32659  0.50870  Biso   1.000  H
  N13      1.0000 0.38539  0.49995  0.18299  Biso   1.000  N
  N14      1.0000 0.43119  0.42330  0.18209  Biso   1.000  N
  O20      1.0000 0.39488  0.21791  0.37137  Biso   1.000  O
  H55      1.0000 0.38249  0.24440  0.46580  Biso   1.000  H
  H56      1.0000 0.42309  0.24869  0.48731  Biso   1.000  H
  H57      1.0000 0.38099  0.21002  0.42398  Biso   1.000  H
  O21      1.0000 0.42640  0.18190  0.43471  Biso   1.000  O
  H58      1.0000 0.40869  0.21372  0.51080  Biso   1.000  H
  C58      1.0000 0.38144  0.51931  0.10911  Biso   1.000  C
  C59      1.0000 0.42393  0.44838  0.10977  Biso   1.000  C
  C60      1.0000 0.40159  0.13882  0.37820  Biso   1.000  C
  H59      1.0000 0.38010  0.16183  0.37371  Biso   1.000  H
  H60      1.0000 0.42589  0.12930  0.41128  Biso   1.000  H
  O22      1.0000 0.35616  0.56750  0.06915  Biso   1.000  O
  N15      1.0000 0.39948  0.49652  0.06921  Biso   1.000  N
  O23      1.0000 0.44274  0.42445  0.06986  Biso   1.000  O
  C61      1.0000 0.39244  0.11069  0.29480  Biso   1.000  C
  H61      1.0000 0.38748  0.11521  0.40229  Biso   1.000  H
  H62      1.0000 0.40280  0.09432  0.40798  Biso   1.000  H
  C62      1.0000 0.33464  0.59361  0.10659  Biso   1.000  C
  C63      1.0000 0.46391  0.36200  0.09958  Biso   1.000  C
  O24      1.0000 0.41727  0.14181  0.26670  Biso   1.000  O
  H63      1.0000 0.36900  0.12522  0.26010  Biso   1.000  H
  H64      1.0000 0.39378  0.05799  0.29498  Biso   1.000  H
  C64      1.0000 0.30317  0.55782  0.08988  Biso   1.000  C
  C65      1.0000 0.34405  0.65432  0.15279  Biso   1.000  C
  C66      1.0000 0.44846  0.29531  0.07699  Biso   1.000  C
  C67      1.0000 0.49908  0.36951  0.14302  Biso   1.000  C
  C68      1.0000 0.41497  0.12049  0.19521  Biso   1.000  C
  C69      1.0000 0.28200  0.58600  0.12427  Biso   1.000  C
  H65      1.0000 0.29680  0.51692  0.05710  Biso   1.000  H
  C70      1.0000 0.32191  0.68168  0.18527  Biso   1.000  C
  H66      1.0000 0.36509  0.67711  0.16238  Biso   1.000  H
  C71      1.0000 0.46982  0.23471  0.09821  Biso   1.000  C
  H67      1.0000 0.42459  0.29101  0.04859  Biso   1.000  H
  C72      1.0000 0.51953  0.30690  0.16352  Biso   1.000  C
  H68      1.0000 0.50899  0.41520  0.15842  Biso   1.000  H
  N16      1.0000 0.39320  0.06669  0.15609  Biso   1.000  N
  N17      1.0000 0.43656  0.15720  0.17041  Biso   1.000  N
  O25      1.0000 0.24979  0.55265  0.10965  Biso   1.000  O
  C73      1.0000 0.29029  0.64839  0.17047  Biso   1.000  C
  H69      1.0000 0.32828  0.72291  0.21738  Biso   1.000  H
  O26      1.0000 0.45508  0.16607  0.06765  Biso   1.000  O
  C74      1.0000 0.50518  0.23950  0.14111  Biso   1.000  C
  H70      1.0000 0.54340  0.31119  0.19288  Biso   1.000  H
  C75      1.0000 0.39460  0.05178  0.08640  Biso   1.000  C
  C76      1.0000 0.43440  0.13479  0.10000  Biso   1.000  C
  C77      1.0000 0.24956  0.49897  0.16070  Biso   1.000  C
  H71      1.0000 0.27510  0.66748  0.19108  Biso   1.000  H
  H72      1.0000 0.51899  0.19800  0.15447  Biso   1.000  H
  O27      1.0000 0.37345  0.99978  0.03985  Biso   1.000  O
  N18      1.0000 0.41413  0.08241  0.05279  Biso   1.000  N
  N19      1.0000 0.27977  0.47471  0.21379  Biso   1.000  N
  N20      1.0000 0.21794  0.47737  0.14980  Biso   1.000  N
  C78      1.0000 0.35225  0.96220  0.06980  Biso   1.000  C
  C79      1.0000 0.27541  0.41933  0.25657  Biso   1.000  C
  C80      1.0000 0.21794  0.42439  0.19959  Biso   1.000  C
  C81      1.0000 0.32064  0.98999  0.06208  Biso   1.000  C
  C82      1.0000 0.36342  0.89382  0.10210  Biso   1.000  C
  O28      1.0000 0.30587  0.38985  0.30690  Biso   1.000  O
  N21      1.0000 0.24609  0.39175  0.25423  Biso   1.000  N
  O29      1.0000 0.18859  0.39942  0.20049  Biso   1.000  O
  C83      1.0000 0.29995  0.94860  0.08778  Biso   1.000  C
  H73      1.0000 0.31351  0.03579  0.04003  Biso   1.000  H
  C84      1.0000 0.34127  0.85319  0.12571  Biso   1.000  C
  H74      1.0000 0.38500  0.87582  0.10779  Biso   1.000  H
  C85      1.0000 0.30415  0.31990  0.33830  Biso   1.000  C
  C86      1.0000 0.15601  0.42929  0.14548  Biso   1.000  C
  O30      1.0000 0.26641  0.97335  0.07705  Biso   1.000  O
  C87      1.0000 0.30942  0.88022  0.11852  Biso   1.000  C
  H75      1.0000 0.34800  0.80679  0.14668  Biso   1.000  H
  C88      1.0000 0.30728  0.26099  0.29468  Biso   1.000  C
  C89      1.0000 0.30148  0.31310  0.41050  Biso   1.000  C
  C90      1.0000 0.12915  0.40579  0.17538  Biso   1.000  C
  H76      1.0000 0.15730  0.48189  0.14440  Biso   1.000  H
  H77      1.0000 0.15040  0.41090  0.09179  Biso   1.000  H
  C91      1.0000 0.26335  0.02600  0.12517  Biso   1.000  C
  H78      1.0000 0.29469  0.85243  0.13422  Biso   1.000  H
  C92      1.0000 0.30780  0.19261  0.32727  Biso   1.000  C
  H79      1.0000 0.30900  0.26692  0.24560  Biso   1.000  H
  C93      1.0000 0.30235  0.24418  0.44088  Biso   1.000  C
  H80      1.0000 0.29910  0.35379  0.43818  Biso   1.000  H
  O31      1.0000 0.12714  0.32893  0.18287  Biso   1.000  O
  H81      1.0000 0.10660  0.42368  0.13889  Biso   1.000  H
  H82      1.0000 0.13440  0.42798  0.22727  Biso   1.000  H
  N22      1.0000 0.29182  0.05146  0.18341  Biso   1.000  N
  N23      1.0000 0.23044  0.04477  0.10689  Biso   1.000  N
  O32      1.0000 0.31275  0.13153  0.28581  Biso   1.000  O
  C94      1.0000 0.30573  0.18288  0.40007  Biso   1.000  C
  H83      1.0000 0.30069  0.23858  0.49001  Biso   1.000  H
  C95      1.0000 0.10176  0.29471  0.11492  Biso   1.000  C
  C96      1.0000 0.28463  0.10411  0.22517  Biso   1.000  C
  C97      1.0000 0.22710  0.09818  0.15339  Biso   1.000  C
  H84      1.0000 0.30659  0.13669  0.42146  Biso   1.000  H
  C98      1.0000 0.10457  0.21388  0.12331  Biso   1.000  C
  H85      1.0000 0.07870  0.31000  0.10911  Biso   1.000  H
  H86      1.0000 0.10489  0.30940  0.06711  Biso   1.000  H
  N24      1.0000 0.25371  0.13093  0.21373  Biso   1.000  N
  O33      1.0000 0.19667  0.12266  0.14506  Biso   1.000  O
  O34      1.0000 0.13136  0.18919  0.10006  Biso   1.000  O
  H87      1.0000 0.08259  0.19158  0.08970  Biso   1.000  H
  H88      1.0000 0.11001  0.20028  0.17850  Biso   1.000  H
  C99      1.0000 0.16534  0.09008  0.08598  Biso   1.000  C
  C100     1.0000 0.13607  0.11320  0.10797  Biso   1.000  C
  H89      1.0000 0.16151  0.10700  0.03260  Biso   1.000  H
  H90      1.0000 0.16731  0.03748  0.08712  Biso   1.000  H
  H91      1.0000 0.14111  0.09900  0.16292  Biso   1.000  H
  H92      1.0000 0.11490  0.08888  0.07340  Biso   1.000  H
  O35      1.0000 0.55725  0.42445  0.43015  Biso   1.000  O
  C101     1.0000 0.53608  0.36200  0.40037  Biso   1.000  C
  C102     1.0000 0.57605  0.44838  0.39019  Biso   1.000  C
  C103     1.0000 0.50091  0.36951  0.35699  Biso   1.000  C
  C104     1.0000 0.55153  0.29531  0.42296  Biso   1.000  C
  N25      1.0000 0.60051  0.49652  0.43081  Biso   1.000  N
  N26      1.0000 0.56879  0.42330  0.31787  Biso   1.000  N
  C105     1.0000 0.48046  0.30690  0.33650  Biso   1.000  C
  H93      1.0000 0.49100  0.41520  0.34159  Biso   1.000  H
  C106     1.0000 0.53018  0.23471  0.40181  Biso   1.000  C
  H94      1.0000 0.57540  0.29101  0.45136  Biso   1.000  H
  C107     1.0000 0.61855  0.51931  0.39091  Biso   1.000  C
  C108     1.0000 0.58910  0.45219  0.28431  Biso   1.000  C
  H95      1.0000 0.45659  0.31119  0.30708  Biso   1.000  H
  C109     1.0000 0.49481  0.23950  0.35891  Biso   1.000  C
  O36      1.0000 0.54490  0.16607  0.43231  Biso   1.000  O
  O37      1.0000 0.64382  0.56750  0.43081  Biso   1.000  O
  N27      1.0000 0.61459  0.49995  0.31697  Biso   1.000  N
  O38      1.0000 0.58162  0.42809  0.21085  Biso   1.000  O
  H96      1.0000 0.48100  0.19800  0.34549  Biso   1.000  H
  C110     1.0000 0.56559  0.13479  0.40001  Biso   1.000  C
  C111     1.0000 0.66534  0.59361  0.39336  Biso   1.000  C
  C112     1.0000 0.60021  0.45752  0.16651  Biso   1.000  C
  N28      1.0000 0.56343  0.15720  0.32961  Biso   1.000  N
  N29      1.0000 0.58585  0.08241  0.44717  Biso   1.000  N
  C113     1.0000 0.65593  0.65432  0.34717  Biso   1.000  C
  C114     1.0000 0.69681  0.55782  0.41008  Biso   1.000  C
  C115     1.0000 0.57980  0.43288  0.08089  Biso   1.000  C
  H97      1.0000 0.60100  0.51023  0.16987  Biso   1.000  H
  H98      1.0000 0.62368  0.43881  0.18659  Biso   1.000  H
  C116     1.0000 0.58502  0.12049  0.30480  Biso   1.000  C
  C117     1.0000 0.60540  0.05178  0.41361  Biso   1.000  C
  C118     1.0000 0.67805  0.68168  0.31469  Biso   1.000  C
  H99      1.0000 0.63489  0.67711  0.33758  Biso   1.000  H
  C119     1.0000 0.71798  0.58600  0.37569  Biso   1.000  C
  H100     1.0000 0.70319  0.51692  0.44291  Biso   1.000  H
  O39      1.0000 0.57520  0.36178  0.07088  Biso   1.000  O
  H101     1.0000 0.59170  0.44990  0.04817  Biso   1.000  H
  H102     1.0000 0.55720  0.45610  0.06118  Biso   1.000  H
  O40      1.0000 0.58272  0.14181  0.23332  Biso   1.000  O
  N30      1.0000 0.60678  0.06669  0.34387  Biso   1.000  N
  O41      1.0000 0.62655  0.99978  0.46017  Biso   1.000  O
  C120     1.0000 0.70969  0.64839  0.32949  Biso   1.000  C
  H103     1.0000 0.67170  0.72291  0.28257  Biso   1.000  H
  O42      1.0000 0.75019  0.55265  0.39031  Biso   1.000  O
  C121     1.0000 0.60458  0.33322  0.09078  Biso   1.000  C
  C122     1.0000 0.59949  0.31179  0.04488  Biso   1.000  C
  C123     1.0000 0.60756  0.11069  0.20522  Biso   1.000  C
  C124     1.0000 0.64774  0.96220  0.43021  Biso   1.000  C
  H104     1.0000 0.72488  0.66748  0.30888  Biso   1.000  H
  C125     1.0000 0.75041  0.49897  0.33932  Biso   1.000  C
  C126     1.0000 0.59990  0.25631  0.05423  Biso   1.000  C
  H105     1.0000 0.61889  0.36238  0.07142  Biso   1.000  H
  H106     1.0000 0.61610  0.33029  0.14872  Biso   1.000  H
  H107     1.0000 0.62329  0.32322  0.07999  Biso   1.000  H
  C127     1.0000 0.59569  0.22743  0.04398  Biso   1.000  C
  H108     1.0000 0.59639  0.32659  0.99131  Biso   1.000  H
  H109     1.0000 0.63099  0.12522  0.23991  Biso   1.000  H
  H110     1.0000 0.60620  0.05799  0.20498  Biso   1.000  H
  C128     1.0000 0.59840  0.13882  0.12181  Biso   1.000  C
  C129     1.0000 0.63657  0.89382  0.39792  Biso   1.000  C
  C130     1.0000 0.67934  0.98999  0.43788  Biso   1.000  C
  N31      1.0000 0.78205  0.47737  0.35022  Biso   1.000  N
  N32      1.0000 0.72022  0.47471  0.28623  Biso   1.000  N
  O43      1.0000 0.60510  0.21791  0.12858  Biso   1.000  O
  H111     1.0000 0.61750  0.24440  0.03421  Biso   1.000  H
  H112     1.0000 0.57690  0.24869  0.01270  Biso   1.000  H
  H113     1.0000 0.61899  0.21002  0.07598  Biso   1.000  H
  O44      1.0000 0.57360  0.18190  0.06531  Biso   1.000  O
  H114     1.0000 0.59128  0.21372  0.98921  Biso   1.000  H
  H115     1.0000 0.57409  0.12930  0.08868  Biso   1.000  H
  H116     1.0000 0.61251  0.11521  0.09773  Biso   1.000  H
  H117     1.0000 0.59719  0.09432  0.09197  Biso   1.000  H
  H118     1.0000 0.61989  0.16183  0.12631  Biso   1.000  H
  H119     1.0000 0.61498  0.87582  0.39216  Biso   1.000  H
  C131     1.0000 0.65873  0.85319  0.37431  Biso   1.000  C
  H120     1.0000 0.68649  0.03579  0.45999  Biso   1.000  H
  C132     1.0000 0.70004  0.94860  0.41218  Biso   1.000  C
  C133     1.0000 0.78204  0.42439  0.30037  Biso   1.000  C
  C134     1.0000 0.72457  0.41933  0.24339  Biso   1.000  C
  H121     1.0000 0.65198  0.80679  0.35328  Biso   1.000  H
  C135     1.0000 0.69058  0.88022  0.38150  Biso   1.000  C
  O45      1.0000 0.73357  0.97335  0.42290  Biso   1.000  O
  O46      1.0000 0.81141  0.39942  0.29953  Biso   1.000  O
  N33      1.0000 0.75390  0.39175  0.24578  Biso   1.000  N
  O47      1.0000 0.69412  0.38985  0.19306  Biso   1.000  O
  H122     1.0000 0.70530  0.85243  0.36580  Biso   1.000  H
  C136     1.0000 0.73663  0.02600  0.37479  Biso   1.000  C
  C137     1.0000 0.84397  0.42929  0.35448  Biso   1.000  C
  C138     1.0000 0.69584  0.31990  0.16172  Biso   1.000  C
  N34      1.0000 0.70818  0.05146  0.31661  Biso   1.000  N
  N35      1.0000 0.76954  0.04477  0.39306  Biso   1.000  N
  C139     1.0000 0.87083  0.40579  0.32458  Biso   1.000  C
  H123     1.0000 0.84269  0.48189  0.35561  Biso   1.000  H
  H124     1.0000 0.84958  0.41090  0.40816  Biso   1.000  H
  C140     1.0000 0.69852  0.31310  0.08952  Biso   1.000  C
  C141     1.0000 0.69271  0.26099  0.20528  Biso   1.000  C
  C142     1.0000 0.71535  0.10411  0.27478  Biso   1.000  C
  C143     1.0000 0.77288  0.09818  0.34657  Biso   1.000  C
  O48      1.0000 0.87285  0.32893  0.31715  Biso   1.000  O
  H125     1.0000 0.89338  0.42368  0.36107  Biso   1.000  H
  H126     1.0000 0.86558  0.42798  0.27269  Biso   1.000  H
  C144     1.0000 0.69763  0.24418  0.05908  Biso   1.000  C
  H127     1.0000 0.70089  0.35379  0.06178  Biso   1.000  H
  C145     1.0000 0.69218  0.19261  0.17268  Biso   1.000  C
  H128     1.0000 0.69099  0.26692  0.25441  Biso   1.000  H
  O49      1.0000 0.68723  0.13153  0.21415  Biso   1.000  O
  N36      1.0000 0.74628  0.13093  0.28629  Biso   1.000  N
  O50      1.0000 0.80332  0.12266  0.35495  Biso   1.000  O
  C146     1.0000 0.89823  0.29471  0.38509  Biso   1.000  C
  C147     1.0000 0.69423  0.18288  0.09988  Biso   1.000  C
  H129     1.0000 0.69931  0.23858  0.01001  Biso   1.000  H
  C148     1.0000 0.83464  0.09008  0.41397  Biso   1.000  C
  C149     1.0000 0.89542  0.21388  0.37671  Biso   1.000  C
  H130     1.0000 0.92129  0.31000  0.39091  Biso   1.000  H
  H131     1.0000 0.89510  0.30940  0.43291  Biso   1.000  H
  H132     1.0000 0.69339  0.13669  0.07849  Biso   1.000  H
  H133     1.0000 0.83848  0.10700  0.46736  Biso   1.000  H
  H134     1.0000 0.83269  0.03748  0.41290  Biso   1.000  H
  C150     1.0000 0.86391  0.11320  0.39198  Biso   1.000  C
  O51      1.0000 0.86863  0.18919  0.39995  Biso   1.000  O
  H135     1.0000 0.91741  0.19158  0.41032  Biso   1.000  H
  H136     1.0000 0.88999  0.20028  0.32152  Biso   1.000  H
  H137     1.0000 0.85889  0.09900  0.33710  Biso   1.000  H
  H138     1.0000 0.88510  0.08888  0.42662  Biso   1.000  H
  O52      1.0000 0.44272  0.57555  0.56982  Biso   1.000  O
  C151     1.0000 0.42393  0.55162  0.60979  Biso   1.000  C
  C152     1.0000 0.46390  0.63800  0.59960  Biso   1.000  C
  N37      1.0000 0.39947  0.50348  0.56916  Biso   1.000  N
  N38      1.0000 0.43119  0.57670  0.68211  Biso   1.000  N
  C153     1.0000 0.49906  0.63049  0.64298  Biso   1.000  C
  C154     1.0000 0.44845  0.70469  0.57701  Biso   1.000  C
  C155     1.0000 0.38142  0.48069  0.60907  Biso   1.000  C
  C156     1.0000 0.41087  0.54781  0.71566  Biso   1.000  C
  H139     1.0000 0.50898  0.58480  0.65838  Biso   1.000  H
  C157     1.0000 0.51951  0.69310  0.66347  Biso   1.000  C
  C158     1.0000 0.46980  0.76529  0.59816  Biso   1.000  C
  H140     1.0000 0.42458  0.70899  0.54861  Biso   1.000  H
  O53      1.0000 0.35616  0.43250  0.56916  Biso   1.000  O
  N39      1.0000 0.38539  0.50005  0.68301  Biso   1.000  N
  O54      1.0000 0.41837  0.57191  0.78918  Biso   1.000  O
  H141     1.0000 0.54339  0.68881  0.69289  Biso   1.000  H
  C159     1.0000 0.50517  0.76050  0.64106  Biso   1.000  C
  O55      1.0000 0.45508  0.83393  0.56766  Biso   1.000  O
  C160     1.0000 0.33464  0.40639  0.60661  Biso   1.000  C
  C161     1.0000 0.39977  0.54248  0.83346  Biso   1.000  C
  H142     1.0000 0.51898  0.80200  0.65449  Biso   1.000  H
  C162     1.0000 0.43438  0.86521  0.59996  Biso   1.000  C
  C163     1.0000 0.34405  0.34568  0.65281  Biso   1.000  C
  C164     1.0000 0.30316  0.44218  0.58989  Biso   1.000  C
  C165     1.0000 0.42018  0.56712  0.91908  Biso   1.000  C
  H143     1.0000 0.39897  0.48977  0.83011  Biso   1.000  H
  H144     1.0000 0.37627  0.56119  0.81339  Biso   1.000  H
  N40      1.0000 0.43654  0.84280  0.67036  Biso   1.000  N
  N41      1.0000 0.41413  0.91759  0.55280  Biso   1.000  N
  C166     1.0000 0.32190  0.31832  0.68528  Biso   1.000  C
  H145     1.0000 0.36508  0.32289  0.66239  Biso   1.000  H
  C167     1.0000 0.28199  0.41400  0.62429  Biso   1.000  C
  H146     1.0000 0.29678  0.48308  0.55706  Biso   1.000  H
  O56      1.0000 0.42477  0.63822  0.92909  Biso   1.000  O
  H147     1.0000 0.40828  0.55010  0.95180  Biso   1.000  H
  H148     1.0000 0.44278  0.54390  0.93880  Biso   1.000  H
  C168     1.0000 0.41495  0.87951  0.69517  Biso   1.000  C
  C169     1.0000 0.39458  0.94822  0.58636  Biso   1.000  C
  C170     1.0000 0.29028  0.35161  0.67048  Biso   1.000  C
  H149     1.0000 0.32828  0.27709  0.71740  Biso   1.000  H
  O57      1.0000 0.24979  0.44735  0.60967  Biso   1.000  O
  C171     1.0000 0.39539  0.66678  0.90920  Biso   1.000  C
  C172     1.0000 0.40048  0.68821  0.95509  Biso   1.000  C
  O58      1.0000 0.41726  0.85819  0.76671  Biso   1.000  O
  N42      1.0000 0.39319  0.93331  0.65610  Biso   1.000  N
  O59      1.0000 0.37343  0.00022  0.53980  Biso   1.000  O
  H150     1.0000 0.27509  0.33252  0.69110  Biso   1.000  H
  C173     1.0000 0.24954  0.50103  0.66066  Biso   1.000  C
  C174     1.0000 0.40009  0.74369  0.94581  Biso   1.000  C
  H151     1.0000 0.38108  0.63762  0.92855  Biso   1.000  H
  H152     1.0000 0.38388  0.66971  0.85126  Biso   1.000  H
  H153     1.0000 0.37667  0.67678  0.91998  Biso   1.000  H
  C175     1.0000 0.40428  0.77257  0.95599  Biso   1.000  C
  H154     1.0000 0.40359  0.67341  0.00866  Biso   1.000  H
  C176     1.0000 0.39242  0.88931  0.79475  Biso   1.000  C
  C177     1.0000 0.35223  0.03780  0.56976  Biso   1.000  C
  N43      1.0000 0.21793  0.52263  0.64975  Biso   1.000  N
  N44      1.0000 0.27976  0.52529  0.71374  Biso   1.000  N
  O60      1.0000 0.39487  0.78209  0.87139  Biso   1.000  O
  H155     1.0000 0.38247  0.75560  0.96576  Biso   1.000  H
  H156     1.0000 0.42307  0.75131  0.98727  Biso   1.000  H
  H157     1.0000 0.38099  0.78998  0.92400  Biso   1.000  H
  O61      1.0000 0.42638  0.81810  0.93466  Biso   1.000  O
  H158     1.0000 0.40869  0.78628  0.01076  Biso   1.000  H
  C178     1.0000 0.40158  0.86118  0.87816  Biso   1.000  C
  H159     1.0000 0.36899  0.87478  0.76006  Biso   1.000  H
  H160     1.0000 0.39377  0.94201  0.79499  Biso   1.000  H
  C179     1.0000 0.36340  0.10618  0.60206  Biso   1.000  C
  C180     1.0000 0.32063  0.01001  0.56209  Biso   1.000  C
  C181     1.0000 0.21793  0.57561  0.69960  Biso   1.000  C
  C182     1.0000 0.27540  0.58067  0.75659  Biso   1.000  C
  H161     1.0000 0.38008  0.83817  0.87367  Biso   1.000  H
  H162     1.0000 0.42588  0.87070  0.91129  Biso   1.000  H
  H163     1.0000 0.38748  0.88479  0.90231  Biso   1.000  H
  H164     1.0000 0.40279  0.90568  0.90800  Biso   1.000  H
  H165     1.0000 0.38499  0.12418  0.60781  Biso   1.000  H
  C183     1.0000 0.34125  0.14681  0.62567  Biso   1.000  C
  H166     1.0000 0.31349  0.96421  0.53998  Biso   1.000  H
  C184     1.0000 0.29994  0.05140  0.58780  Biso   1.000  C
  O62      1.0000 0.18858  0.60058  0.70050  Biso   1.000  O
  N45      1.0000 0.24607  0.60825  0.75419  Biso   1.000  N
  O63      1.0000 0.30586  0.61015  0.80692  Biso   1.000  O
  H167     1.0000 0.34799  0.19321  0.64670  Biso   1.000  H
  C185     1.0000 0.30940  0.11978  0.61847  Biso   1.000  C
  O64      1.0000 0.26640  0.02665  0.57707  Biso   1.000  O
  C186     1.0000 0.15600  0.57071  0.64550  Biso   1.000  C
  C187     1.0000 0.30414  0.68010  0.83825  Biso   1.000  C
  H168     1.0000 0.29467  0.14757  0.63417  Biso   1.000  H
  C188     1.0000 0.26334  0.97400  0.62519  Biso   1.000  C
  C189     1.0000 0.12915  0.59421  0.67540  Biso   1.000  C
  H169     1.0000 0.15728  0.51811  0.64436  Biso   1.000  H
  H170     1.0000 0.15040  0.58910  0.59181  Biso   1.000  H
  C190     1.0000 0.30146  0.68690  0.91046  Biso   1.000  C
  C191     1.0000 0.30727  0.73901  0.79469  Biso   1.000  C
  N46      1.0000 0.29180  0.94854  0.68337  Biso   1.000  N
  N47      1.0000 0.23041  0.95523  0.60691  Biso   1.000  N
  O65      1.0000 0.12712  0.67107  0.68283  Biso   1.000  O
  H171     1.0000 0.10659  0.57632  0.63891  Biso   1.000  H
  H172     1.0000 0.13439  0.57202  0.72729  Biso   1.000  H
  C192     1.0000 0.30235  0.75582  0.94089  Biso   1.000  C
  H173     1.0000 0.29909  0.64621  0.93820  Biso   1.000  H
  C193     1.0000 0.30779  0.80739  0.82729  Biso   1.000  C
  H174     1.0000 0.30898  0.73308  0.74556  Biso   1.000  H
  C194     1.0000 0.28462  0.89589  0.72519  Biso   1.000  C
  C195     1.0000 0.22709  0.90182  0.65341  Biso   1.000  C
  C196     1.0000 0.10174  0.70529  0.61488  Biso   1.000  C
  C197     1.0000 0.30572  0.81712  0.90009  Biso   1.000  C
  H175     1.0000 0.30067  0.76142  0.98997  Biso   1.000  H
  O66      1.0000 0.31274  0.86847  0.78583  Biso   1.000  O
  N48      1.0000 0.25369  0.86907  0.71368  Biso   1.000  N
  O67      1.0000 0.19665  0.87734  0.64502  Biso   1.000  O
  C198     1.0000 0.10455  0.78612  0.62327  Biso   1.000  C
  H176     1.0000 0.07869  0.69000  0.60907  Biso   1.000  H
  H177     1.0000 0.10488  0.69060  0.56707  Biso   1.000  H
  H178     1.0000 0.30659  0.86331  0.92148  Biso   1.000  H
  C199     1.0000 0.16534  0.90992  0.58600  Biso   1.000  C
  O68      1.0000 0.13134  0.81081  0.60002  Biso   1.000  O
  H179     1.0000 0.08258  0.80842  0.58971  Biso   1.000  H
  H180     1.0000 0.11000  0.79972  0.67851  Biso   1.000  H
  C200     1.0000 0.13606  0.88680  0.60799  Biso   1.000  C
  H181     1.0000 0.16150  0.89300  0.53261  Biso   1.000  H
  H182     1.0000 0.16729  0.96252  0.58708  Biso   1.000  H
  H183     1.0000 0.14109  0.90100  0.66287  Biso   1.000  H
  H184     1.0000 0.11489  0.91112  0.57342  Biso   1.000  H
  C201     1.0000 0.63606  0.38680  0.60799  Biso   1.000  C
  O69      1.0000 0.63134  0.31081  0.60002  Biso   1.000  O
  C202     1.0000 0.66534  0.40992  0.58600  Biso   1.000  C
  H185     1.0000 0.64109  0.40100  0.66287  Biso   1.000  H
  H186     1.0000 0.61489  0.41112  0.57342  Biso   1.000  H
  C203     1.0000 0.60455  0.28612  0.62327  Biso   1.000  C
  O70      1.0000 0.69665  0.37734  0.64502  Biso   1.000  O
  H187     1.0000 0.66150  0.39300  0.53261  Biso   1.000  H
  H188     1.0000 0.66729  0.46252  0.58708  Biso   1.000  H
  C204     1.0000 0.60174  0.20529  0.61488  Biso   1.000  C
  H189     1.0000 0.58258  0.30842  0.58971  Biso   1.000  H
  H190     1.0000 0.61000  0.29972  0.67851  Biso   1.000  H
  C205     1.0000 0.72709  0.40182  0.65341  Biso   1.000  C
  O71      1.0000 0.62712  0.17107  0.68283  Biso   1.000  O
  H191     1.0000 0.57869  0.19000  0.60907  Biso   1.000  H
  H192     1.0000 0.60488  0.19060  0.56707  Biso   1.000  H
  N49      1.0000 0.73041  0.45523  0.60691  Biso   1.000  N
  N50      1.0000 0.75369  0.36907  0.71368  Biso   1.000  N
  C206     1.0000 0.62915  0.09421  0.67540  Biso   1.000  C
  C207     1.0000 0.76334  0.47400  0.62519  Biso   1.000  C
  C208     1.0000 0.78462  0.39589  0.72519  Biso   1.000  C
  H193     1.0000 0.60659  0.07632  0.63891  Biso   1.000  H
  H194     1.0000 0.63439  0.07202  0.72729  Biso   1.000  H
  C209     1.0000 0.65600  0.07071  0.64550  Biso   1.000  C
  O72      1.0000 0.76640  0.52665  0.57707  Biso   1.000  O
  N51      1.0000 0.79180  0.44854  0.68337  Biso   1.000  N
  O73      1.0000 0.81274  0.36847  0.78583  Biso   1.000  O
  O74      1.0000 0.68858  0.10058  0.70050  Biso   1.000  O
  H195     1.0000 0.65728  0.01811  0.64436  Biso   1.000  H
  H196     1.0000 0.65040  0.08910  0.59181  Biso   1.000  H
  C210     1.0000 0.79994  0.55140  0.58780  Biso   1.000  C
  C211     1.0000 0.80779  0.30739  0.82729  Biso   1.000  C
  C212     1.0000 0.71793  0.07561  0.69960  Biso   1.000  C
  C213     1.0000 0.80940  0.61978  0.61847  Biso   1.000  C
  C214     1.0000 0.82063  0.51001  0.56209  Biso   1.000  C
  C215     1.0000 0.80727  0.23901  0.79469  Biso   1.000  C
  C216     1.0000 0.80572  0.31712  0.90009  Biso   1.000  C
  N52      1.0000 0.74607  0.10825  0.75419  Biso   1.000  N
  N53      1.0000 0.71793  0.02263  0.64975  Biso   1.000  N
  C217     1.0000 0.84125  0.64681  0.62567  Biso   1.000  C
  H197     1.0000 0.79467  0.64757  0.63417  Biso   1.000  H
  C218     1.0000 0.85223  0.53780  0.56976  Biso   1.000  C
  H198     1.0000 0.81349  0.46421  0.53998  Biso   1.000  H
  C219     1.0000 0.80414  0.18010  0.83825  Biso   1.000  C
  H199     1.0000 0.80898  0.23308  0.74556  Biso   1.000  H
  C220     1.0000 0.80235  0.25582  0.94089  Biso   1.000  C
  H200     1.0000 0.80659  0.36331  0.92148  Biso   1.000  H
  C221     1.0000 0.77540  0.08067  0.75659  Biso   1.000  C
  C222     1.0000 0.74954  0.00103  0.66066  Biso   1.000  C
  C223     1.0000 0.86340  0.60618  0.60206  Biso   1.000  C
  H201     1.0000 0.84799  0.69321  0.64670  Biso   1.000  H
  O75      1.0000 0.87343  0.50022  0.53980  Biso   1.000  O
  O76      1.0000 0.80586  0.11015  0.80692  Biso   1.000  O
  C224     1.0000 0.80146  0.18690  0.91046  Biso   1.000  C
  H202     1.0000 0.80067  0.26142  0.98997  Biso   1.000  H
  N54      1.0000 0.77976  0.02529  0.71374  Biso   1.000  N
  O77      1.0000 0.74979  0.94735  0.60967  Biso   1.000  O
  H203     1.0000 0.88499  0.62418  0.60781  Biso   1.000  H
  C225     1.0000 0.89458  0.44822  0.58636  Biso   1.000  C
  H204     1.0000 0.79909  0.14621  0.93820  Biso   1.000  H
  C226     1.0000 0.78199  0.91400  0.62429  Biso   1.000  C
  N55      1.0000 0.91413  0.41759  0.55280  Biso   1.000  N
  N56      1.0000 0.89319  0.43331  0.65610  Biso   1.000  N
  C227     1.0000 0.79028  0.85161  0.67048  Biso   1.000  C
  C228     1.0000 0.80316  0.94218  0.58989  Biso   1.000  C
  C229     1.0000 0.93438  0.36521  0.59996  Biso   1.000  C
  C230     1.0000 0.91495  0.37951  0.69517  Biso   1.000  C
  H205     1.0000 0.77509  0.83252  0.69110  Biso   1.000  H
  C231     1.0000 0.82190  0.81832  0.68528  Biso   1.000  C
  C232     1.0000 0.83464  0.90639  0.60661  Biso   1.000  C
  H206     1.0000 0.79678  0.98308  0.55706  Biso   1.000  H
  O78      1.0000 0.95508  0.33393  0.56766  Biso   1.000  O
  N57      1.0000 0.93654  0.34280  0.67036  Biso   1.000  N
  O79      1.0000 0.91726  0.35819  0.76671  Biso   1.000  O
  H207     1.0000 0.82828  0.77709  0.71740  Biso   1.000  H
  C233     1.0000 0.84405  0.84568  0.65281  Biso   1.000  C
  O80      1.0000 0.85616  0.93250  0.56916  Biso   1.000  O
  C234     1.0000 0.96980  0.26529  0.59816  Biso   1.000  C
  C235     1.0000 0.89242  0.38931  0.79475  Biso   1.000  C
  H208     1.0000 0.86508  0.82289  0.66239  Biso   1.000  H
  C236     1.0000 0.88142  0.98069  0.60907  Biso   1.000  C
  C237     1.0000 0.94845  0.20469  0.57701  Biso   1.000  C
  C238     1.0000 0.00517  0.26050  0.64106  Biso   1.000  C
  H209     1.0000 0.86899  0.37478  0.76006  Biso   1.000  H
  H210     1.0000 0.89377  0.44201  0.79499  Biso   1.000  H
  C239     1.0000 0.90158  0.36118  0.87816  Biso   1.000  C
  N58      1.0000 0.88539  0.00005  0.68301  Biso   1.000  N
  N59      1.0000 0.89947  0.00348  0.56916  Biso   1.000  N
  C240     1.0000 0.96390  0.13800  0.59960  Biso   1.000  C
  H211     1.0000 0.92458  0.20899  0.54861  Biso   1.000  H
  C241     1.0000 0.01951  0.19310  0.66347  Biso   1.000  C
  H212     1.0000 0.01898  0.30200  0.65449  Biso   1.000  H
  O81      1.0000 0.89487  0.28209  0.87139  Biso   1.000  O
  H213     1.0000 0.92588  0.37070  0.91129  Biso   1.000  H
  H214     1.0000 0.88748  0.38479  0.90231  Biso   1.000  H
  H215     1.0000 0.90279  0.40568  0.90800  Biso   1.000  H
  H216     1.0000 0.88008  0.33817  0.87367  Biso   1.000  H
  O82      1.0000 0.92638  0.31810  0.93466  Biso   1.000  O
  C242     1.0000 0.91087  0.04781  0.71566  Biso   1.000  C
  C243     1.0000 0.92393  0.05162  0.60979  Biso   1.000  C
  O83      1.0000 0.94272  0.07555  0.56982  Biso   1.000  O
  C244     1.0000 0.99906  0.13049  0.64298  Biso   1.000  C
  H217     1.0000 0.04339  0.18881  0.69289  Biso   1.000  H
  C245     1.0000 0.90009  0.24369  0.94581  Biso   1.000  C
  C246     1.0000 0.90428  0.27257  0.95599  Biso   1.000  C
  O84      1.0000 0.91837  0.07191  0.78918  Biso   1.000  O
  N60      1.0000 0.93119  0.07670  0.68211  Biso   1.000  N
  H218     1.0000 0.00898  0.08480  0.65838  Biso   1.000  H
  C247     1.0000 0.89539  0.16678  0.90920  Biso   1.000  C
  C248     1.0000 0.90048  0.18821  0.95509  Biso   1.000  C
  H219     1.0000 0.88247  0.25560  0.96576  Biso   1.000  H
  H220     1.0000 0.92307  0.25131  0.98727  Biso   1.000  H
  H221     1.0000 0.88099  0.28998  0.92400  Biso   1.000  H
  H222     1.0000 0.90869  0.28628  0.01076  Biso   1.000  H
  C249     1.0000 0.89977  0.04248  0.83346  Biso   1.000  C
  O85      1.0000 0.92477  0.13822  0.92909  Biso   1.000  O
  H223     1.0000 0.88108  0.13762  0.92855  Biso   1.000  H
  H224     1.0000 0.88388  0.16971  0.85126  Biso   1.000  H
  H225     1.0000 0.87667  0.17678  0.91998  Biso   1.000  H
  H226     1.0000 0.90359  0.17341  0.00866  Biso   1.000  H
  C250     1.0000 0.92018  0.06712  0.91908  Biso   1.000  C
  H227     1.0000 0.87627  0.06119  0.81339  Biso   1.000  H
  H228     1.0000 0.89897  0.98977  0.83011  Biso   1.000  H
  H229     1.0000 0.90828  0.05010  0.95180  Biso   1.000  H
  H230     1.0000 0.94278  0.04390  0.93880  Biso   1.000  H
  C251     1.0000 0.36391  0.61320  0.39198  Biso   1.000  C
  C252     1.0000 0.33464  0.59008  0.41397  Biso   1.000  C
  O86      1.0000 0.36863  0.68919  0.39995  Biso   1.000  O
  H231     1.0000 0.35889  0.59900  0.33710  Biso   1.000  H
  H232     1.0000 0.38510  0.58888  0.42662  Biso   1.000  H
  O87      1.0000 0.30332  0.62266  0.35495  Biso   1.000  O
  H233     1.0000 0.33848  0.60700  0.46736  Biso   1.000  H
  H234     1.0000 0.33269  0.53748  0.41290  Biso   1.000  H
  C253     1.0000 0.39542  0.71388  0.37671  Biso   1.000  C
  C254     1.0000 0.27288  0.59818  0.34657  Biso   1.000  C
  H235     1.0000 0.41741  0.69158  0.41032  Biso   1.000  H
  H236     1.0000 0.38999  0.70028  0.32152  Biso   1.000  H
  C255     1.0000 0.39823  0.79471  0.38509  Biso   1.000  C
  N61      1.0000 0.26954  0.54477  0.39306  Biso   1.000  N
  N62      1.0000 0.24628  0.63093  0.28629  Biso   1.000  N
  O88      1.0000 0.37285  0.82893  0.31715  Biso   1.000  O
  H237     1.0000 0.42129  0.81000  0.39091  Biso   1.000  H
  H238     1.0000 0.39510  0.80940  0.43291  Biso   1.000  H
  C256     1.0000 0.23663  0.52600  0.37479  Biso   1.000  C
  C257     1.0000 0.21535  0.60411  0.27478  Biso   1.000  C
  C258     1.0000 0.37083  0.90579  0.32458  Biso   1.000  C
  O89      1.0000 0.23357  0.47335  0.42290  Biso   1.000  O
  N63      1.0000 0.20818  0.55146  0.31661  Biso   1.000  N
  O90      1.0000 0.18723  0.63153  0.21415  Biso   1.000  O
  H239     1.0000 0.39338  0.92368  0.36107  Biso   1.000  H
  H240     1.0000 0.36558  0.92798  0.27269  Biso   1.000  H
  C259     1.0000 0.34397  0.92929  0.35448  Biso   1.000  C
  C260     1.0000 0.20004  0.44860  0.41218  Biso   1.000  C
  C261     1.0000 0.19218  0.69261  0.17268  Biso   1.000  C
  O91      1.0000 0.31141  0.89942  0.29953  Biso   1.000  O
  H241     1.0000 0.34269  0.98189  0.35561  Biso   1.000  H
  H242     1.0000 0.34958  0.91090  0.40816  Biso   1.000  H
  C262     1.0000 0.19058  0.38022  0.38150  Biso   1.000  C
  C263     1.0000 0.17934  0.48999  0.43788  Biso   1.000  C
  C264     1.0000 0.19423  0.68288  0.09988  Biso   1.000  C
  C265     1.0000 0.19271  0.76099  0.20528  Biso   1.000  C
  C266     1.0000 0.28204  0.92439  0.30037  Biso   1.000  C
  C267     1.0000 0.15873  0.35319  0.37431  Biso   1.000  C
  H243     1.0000 0.20530  0.35243  0.36580  Biso   1.000  H
  C268     1.0000 0.14774  0.46220  0.43021  Biso   1.000  C
  H244     1.0000 0.18649  0.53579  0.45999  Biso   1.000  H
  H245     1.0000 0.19339  0.63669  0.07849  Biso   1.000  H
  C269     1.0000 0.19763  0.74418  0.05908  Biso   1.000  C
  C270     1.0000 0.19584  0.81990  0.16172  Biso   1.000  C
  H246     1.0000 0.19099  0.76692  0.25441  Biso   1.000  H
  N64      1.0000 0.25390  0.89175  0.24578  Biso   1.000  N
  N65      1.0000 0.28205  0.97737  0.35022  Biso   1.000  N
  C271     1.0000 0.13657  0.39382  0.39792  Biso   1.000  C
  H247     1.0000 0.15198  0.30679  0.35328  Biso   1.000  H
  O92      1.0000 0.12655  0.49978  0.46017  Biso   1.000  O
  H248     1.0000 0.19931  0.73858  0.01001  Biso   1.000  H
  C272     1.0000 0.19852  0.81310  0.08952  Biso   1.000  C
  O93      1.0000 0.19412  0.88985  0.19306  Biso   1.000  O
  C273     1.0000 0.22457  0.91933  0.24339  Biso   1.000  C
  C274     1.0000 0.25041  0.99897  0.33932  Biso   1.000  C
  H249     1.0000 0.11498  0.37582  0.39216  Biso   1.000  H
  C275     1.0000 0.10540  0.55178  0.41361  Biso   1.000  C
  H250     1.0000 0.20089  0.85379  0.06178  Biso   1.000  H
  N66      1.0000 0.22022  0.97471  0.28623  Biso   1.000  N
  O94      1.0000 0.25019  0.05265  0.39031  Biso   1.000  O
  N67      1.0000 0.08585  0.58241  0.44717  Biso   1.000  N
  N68      1.0000 0.10678  0.56669  0.34387  Biso   1.000  N
  C276     1.0000 0.21798  0.08600  0.37569  Biso   1.000  C
  C277     1.0000 0.06559  0.63479  0.40001  Biso   1.000  C
  C278     1.0000 0.08502  0.62049  0.30480  Biso   1.000  C
  C279     1.0000 0.20969  0.14839  0.32949  Biso   1.000  C
  C280     1.0000 0.19681  0.05782  0.41008  Biso   1.000  C
  O95      1.0000 0.04490  0.66607  0.43231  Biso   1.000  O
  N69      1.0000 0.06343  0.65720  0.32961  Biso   1.000  N
  O96      1.0000 0.08272  0.64181  0.23332  Biso   1.000  O
  H251     1.0000 0.22488  0.16748  0.30888  Biso   1.000  H
  C281     1.0000 0.17805  0.18168  0.31469  Biso   1.000  C
  C282     1.0000 0.16534  0.09361  0.39336  Biso   1.000  C
  H252     1.0000 0.20319  0.01692  0.44291  Biso   1.000  H
  C283     1.0000 0.03018  0.73471  0.40181  Biso   1.000  C
  C284     1.0000 0.10756  0.61069  0.20522  Biso   1.000  C
  C285     1.0000 0.15593  0.15432  0.34717  Biso   1.000  C
  H253     1.0000 0.17170  0.22291  0.28257  Biso   1.000  H
  O97      1.0000 0.14382  0.06750  0.43081  Biso   1.000  O
  C286     1.0000 0.05153  0.79531  0.42296  Biso   1.000  C
  C287     1.0000 0.99481  0.73950  0.35891  Biso   1.000  C
  H254     1.0000 0.13099  0.62522  0.23991  Biso   1.000  H
  H255     1.0000 0.10620  0.55799  0.20498  Biso   1.000  H
  C288     1.0000 0.09840  0.63882  0.12181  Biso   1.000  C
  H256     1.0000 0.13489  0.17711  0.33758  Biso   1.000  H
  C289     1.0000 0.11855  0.01931  0.39091  Biso   1.000  C
  C290     1.0000 0.03608  0.86200  0.40037  Biso   1.000  C
  H257     1.0000 0.07540  0.79101  0.45136  Biso   1.000  H
  C291     1.0000 0.98046  0.80690  0.33650  Biso   1.000  C
  H258     1.0000 0.98100  0.69800  0.34549  Biso   1.000  H
  O98      1.0000 0.10510  0.71791  0.12858  Biso   1.000  O
  H259     1.0000 0.07409  0.62930  0.08868  Biso   1.000  H
  H260     1.0000 0.11251  0.61521  0.09773  Biso   1.000  H
  H261     1.0000 0.09719  0.59432  0.09197  Biso   1.000  H
  H262     1.0000 0.11989  0.66183  0.12631  Biso   1.000  H
  O99      1.0000 0.07360  0.68190  0.06531  Biso   1.000  O
  N70      1.0000 0.10051  0.99652  0.43081  Biso   1.000  N
  N71      1.0000 0.11459  0.99995  0.31697  Biso   1.000  N
  O100     1.0000 0.05725  0.92445  0.43015  Biso   1.000  O
  C292     1.0000 0.00091  0.86951  0.35699  Biso   1.000  C
  H263     1.0000 0.95659  0.81119  0.30708  Biso   1.000  H
  C293     1.0000 0.09990  0.75631  0.05423  Biso   1.000  C
  C294     1.0000 0.09569  0.72743  0.04398  Biso   1.000  C
  C295     1.0000 0.07605  0.94838  0.39019  Biso   1.000  C
  C296     1.0000 0.08910  0.95219  0.28431  Biso   1.000  C
  H264     1.0000 0.99100  0.91520  0.34159  Biso   1.000  H
  H265     1.0000 0.11750  0.74440  0.03421  Biso   1.000  H
  H266     1.0000 0.07690  0.74869  0.01270  Biso   1.000  H
  C297     1.0000 0.10458  0.83322  0.09078  Biso   1.000  C
  C298     1.0000 0.09949  0.81179  0.04488  Biso   1.000  C
  H267     1.0000 0.11899  0.71002  0.07598  Biso   1.000  H
  H268     1.0000 0.09128  0.71372  0.98921  Biso   1.000  H
  N72      1.0000 0.06879  0.92330  0.31787  Biso   1.000  N
  O101     1.0000 0.08162  0.92809  0.21085  Biso   1.000  O
  O102     1.0000 0.07520  0.86178  0.07088  Biso   1.000  O
  H269     1.0000 0.11889  0.86238  0.07142  Biso   1.000  H
  H270     1.0000 0.11610  0.83029  0.14872  Biso   1.000  H
  H271     1.0000 0.12329  0.82322  0.07999  Biso   1.000  H
  H272     1.0000 0.09639  0.82659  0.99131  Biso   1.000  H
  C299     1.0000 0.10021  0.95752  0.16651  Biso   1.000  C
  C300     1.0000 0.07980  0.93288  0.08089  Biso   1.000  C
  H273     1.0000 0.12368  0.93881  0.18659  Biso   1.000  H
  H274     1.0000 0.10100  0.01023  0.16987  Biso   1.000  H
  H275     1.0000 0.09170  0.94990  0.04817  Biso   1.000  H
  H276     1.0000 0.05720  0.95610  0.06118  Biso   1.000  H
  C301     1.0000 0.60457  0.71388  0.12331  Biso   1.000  C
  O103     1.0000 0.63136  0.68919  0.10006  Biso   1.000  O
  H277     1.0000 0.58259  0.69158  0.08970  Biso   1.000  H
  H278     1.0000 0.61001  0.70028  0.17850  Biso   1.000  H
  C302     1.0000 0.60176  0.79471  0.11492  Biso   1.000  C
  C303     1.0000 0.63607  0.61320  0.10797  Biso   1.000  C
  O104     1.0000 0.62714  0.82893  0.18287  Biso   1.000  O
  H279     1.0000 0.57870  0.81000  0.10911  Biso   1.000  H
  H280     1.0000 0.60489  0.80940  0.06711  Biso   1.000  H
  C304     1.0000 0.66534  0.59008  0.08598  Biso   1.000  C
  H281     1.0000 0.64111  0.59900  0.16292  Biso   1.000  H
  H282     1.0000 0.61490  0.58888  0.07340  Biso   1.000  H
  C305     1.0000 0.62915  0.90579  0.17538  Biso   1.000  C
  O105     1.0000 0.69667  0.62266  0.14506  Biso   1.000  O
  H283     1.0000 0.66151  0.60700  0.03260  Biso   1.000  H
  H284     1.0000 0.66731  0.53748  0.08712  Biso   1.000  H
  H285     1.0000 0.60660  0.92368  0.13889  Biso   1.000  H
  H286     1.0000 0.63440  0.92798  0.22727  Biso   1.000  H
  C306     1.0000 0.65601  0.92929  0.14548  Biso   1.000  C
  C307     1.0000 0.72710  0.59818  0.15339  Biso   1.000  C
  O106     1.0000 0.68859  0.89942  0.20049  Biso   1.000  O
  H287     1.0000 0.65730  0.98189  0.14440  Biso   1.000  H
  H288     1.0000 0.65040  0.91090  0.09179  Biso   1.000  H
  N73      1.0000 0.73044  0.54477  0.10689  Biso   1.000  N
  N74      1.0000 0.75371  0.63093  0.21373  Biso   1.000  N
  C308     1.0000 0.71794  0.92439  0.19959  Biso   1.000  C
  C309     1.0000 0.76335  0.52600  0.12517  Biso   1.000  C
  C310     1.0000 0.78463  0.60411  0.22517  Biso   1.000  C
  N75      1.0000 0.74609  0.89175  0.25423  Biso   1.000  N
  N76      1.0000 0.71794  0.97737  0.14980  Biso   1.000  N
  O107     1.0000 0.76641  0.47335  0.07705  Biso   1.000  O
  N77      1.0000 0.79182  0.55146  0.18341  Biso   1.000  N
  O108     1.0000 0.81275  0.63153  0.28581  Biso   1.000  O
  C311     1.0000 0.77541  0.91933  0.25657  Biso   1.000  C
  C312     1.0000 0.74956  0.99897  0.16070  Biso   1.000  C
  C313     1.0000 0.79995  0.44860  0.08778  Biso   1.000  C
  C314     1.0000 0.80780  0.69261  0.32727  Biso   1.000  C
  O109     1.0000 0.80587  0.88985  0.30690  Biso   1.000  O
  N78      1.0000 0.77977  0.97471  0.21379  Biso   1.000  N
  O110     1.0000 0.74979  0.05265  0.10965  Biso   1.000  O
  C315     1.0000 0.80942  0.38022  0.11852  Biso   1.000  C
  C316     1.0000 0.82064  0.48999  0.06208  Biso   1.000  C
  C317     1.0000 0.80573  0.68288  0.40007  Biso   1.000  C
  C318     1.0000 0.80728  0.76099  0.29468  Biso   1.000  C
  C319     1.0000 0.80415  0.81990  0.33830  Biso   1.000  C
  C320     1.0000 0.78200  0.08600  0.12427  Biso   1.000  C
  C321     1.0000 0.84127  0.35319  0.12571  Biso   1.000  C
  H289     1.0000 0.79469  0.35243  0.13422  Biso   1.000  H
  C322     1.0000 0.85225  0.46220  0.06980  Biso   1.000  C
  H290     1.0000 0.81351  0.53579  0.04003  Biso   1.000  H
  H291     1.0000 0.80659  0.63669  0.42146  Biso   1.000  H
  C323     1.0000 0.80235  0.74418  0.44088  Biso   1.000  C
  H292     1.0000 0.80900  0.76692  0.24560  Biso   1.000  H
  C324     1.0000 0.80148  0.81310  0.41050  Biso   1.000  C
  C325     1.0000 0.79029  0.14839  0.17047  Biso   1.000  C
  C326     1.0000 0.80317  0.05782  0.08988  Biso   1.000  C
  C327     1.0000 0.86342  0.39382  0.10210  Biso   1.000  C
  H293     1.0000 0.84800  0.30679  0.14668  Biso   1.000  H
  O111     1.0000 0.87345  0.49978  0.03985  Biso   1.000  O
  H294     1.0000 0.80069  0.73858  0.49001  Biso   1.000  H
  H295     1.0000 0.79910  0.85379  0.43818  Biso   1.000  H
  H296     1.0000 0.77510  0.16748  0.19108  Biso   1.000  H
  C328     1.0000 0.82191  0.18168  0.18527  Biso   1.000  C
  C329     1.0000 0.83464  0.09361  0.10659  Biso   1.000  C
  H297     1.0000 0.79680  0.01692  0.05710  Biso   1.000  H
  H298     1.0000 0.88500  0.37582  0.10779  Biso   1.000  H
  C330     1.0000 0.89460  0.55178  0.08640  Biso   1.000  C
  H299     1.0000 0.82828  0.22291  0.21738  Biso   1.000  H
  C331     1.0000 0.84405  0.15432  0.15279  Biso   1.000  C
  O112     1.0000 0.85616  0.06750  0.06915  Biso   1.000  O
  N79      1.0000 0.91413  0.58241  0.05279  Biso   1.000  N
  N80      1.0000 0.89320  0.56669  0.15609  Biso   1.000  N
  H300     1.0000 0.86509  0.17711  0.16238  Biso   1.000  H
  C332     1.0000 0.88144  0.01931  0.10911  Biso   1.000  C
  C333     1.0000 0.93440  0.63479  0.10000  Biso   1.000  C
  C334     1.0000 0.91497  0.62049  0.19521  Biso   1.000  C
  N81      1.0000 0.88539  0.99995  0.18299  Biso   1.000  N
  N82      1.0000 0.89948  0.99652  0.06921  Biso   1.000  N
  O113     1.0000 0.95508  0.66607  0.06765  Biso   1.000  O
  N83      1.0000 0.93656  0.65720  0.17041  Biso   1.000  N
  O114     1.0000 0.91727  0.64181  0.26670  Biso   1.000  O
  C335     1.0000 0.91089  0.95219  0.21571  Biso   1.000  C
  C336     1.0000 0.92393  0.94838  0.10977  Biso   1.000  C
  C337     1.0000 0.96982  0.73471  0.09821  Biso   1.000  C
  C338     1.0000 0.89244  0.61069  0.29480  Biso   1.000  C
  O115     1.0000 0.91837  0.92809  0.28916  Biso   1.000  O
  N84      1.0000 0.93119  0.92330  0.18209  Biso   1.000  N
  O116     1.0000 0.94274  0.92445  0.06986  Biso   1.000  O
  C339     1.0000 0.94846  0.79531  0.07699  Biso   1.000  C
  C340     1.0000 0.00518  0.73950  0.14111  Biso   1.000  C
  H301     1.0000 0.86900  0.62522  0.26010  Biso   1.000  H
  H302     1.0000 0.89378  0.55799  0.29498  Biso   1.000  H
  C341     1.0000 0.90159  0.63882  0.37820  Biso   1.000  C
  C342     1.0000 0.89979  0.95752  0.33350  Biso   1.000  C
  C343     1.0000 0.96391  0.86200  0.09958  Biso   1.000  C
  H303     1.0000 0.92459  0.79101  0.04859  Biso   1.000  H
  C344     1.0000 0.01953  0.80690  0.16352  Biso   1.000  C
  H304     1.0000 0.01899  0.69800  0.15447  Biso   1.000  H
  O117     1.0000 0.89488  0.71791  0.37137  Biso   1.000  O
  H305     1.0000 0.92589  0.62930  0.41128  Biso   1.000  H
  H306     1.0000 0.88748  0.61521  0.40229  Biso   1.000  H
  H307     1.0000 0.90280  0.59432  0.40798  Biso   1.000  H
  H308     1.0000 0.88010  0.66183  0.37371  Biso   1.000  H
  O118     1.0000 0.92640  0.68190  0.43471  Biso   1.000  O
  C345     1.0000 0.92018  0.93288  0.41907  Biso   1.000  C
  H309     1.0000 0.87628  0.93881  0.31337  Biso   1.000  H
  H310     1.0000 0.89898  0.01023  0.33009  Biso   1.000  H
  C346     1.0000 0.99908  0.86951  0.14302  Biso   1.000  C
  H311     1.0000 0.04340  0.81119  0.19288  Biso   1.000  H
  C347     1.0000 0.90010  0.75631  0.44579  Biso   1.000  C
  C348     1.0000 0.90429  0.72743  0.45598  Biso   1.000  C
  O119     1.0000 0.92478  0.86178  0.42907  Biso   1.000  O
  H312     1.0000 0.90828  0.94990  0.45178  Biso   1.000  H
  H313     1.0000 0.94279  0.95610  0.43878  Biso   1.000  H
  H314     1.0000 0.00899  0.91520  0.15842  Biso   1.000  H
  H315     1.0000 0.88249  0.74440  0.46580  Biso   1.000  H
  H316     1.0000 0.92309  0.74869  0.48731  Biso   1.000  H
  C349     1.0000 0.89540  0.83322  0.40918  Biso   1.000  C
  C350     1.0000 0.90049  0.81179  0.45508  Biso   1.000  C
  H317     1.0000 0.88099  0.71002  0.42398  Biso   1.000  H
  H318     1.0000 0.90869  0.71372  0.51080  Biso   1.000  H
  H319     1.0000 0.88110  0.86238  0.42859  Biso   1.000  H
  H320     1.0000 0.88390  0.83029  0.35130  Biso   1.000  H
  H321     1.0000 0.87667  0.82322  0.41997  Biso   1.000  H
  H322     1.0000 0.90358  0.82659  0.50870  Biso   1.000  H
  C351     1.0000 0.39541  0.28612  0.87666  Biso   1.000  C
  O120     1.0000 0.36861  0.31081  0.89991  Biso   1.000  O
  C352     1.0000 0.39822  0.20529  0.88505  Biso   1.000  C
  H323     1.0000 0.41739  0.30842  0.91028  Biso   1.000  H
  H324     1.0000 0.38997  0.29972  0.82148  Biso   1.000  H
  C353     1.0000 0.36391  0.38680  0.89200  Biso   1.000  C
  O121     1.0000 0.37284  0.17107  0.81710  Biso   1.000  O
  H325     1.0000 0.42127  0.19000  0.89086  Biso   1.000  H
  H326     1.0000 0.39508  0.19060  0.93287  Biso   1.000  H
  C354     1.0000 0.33463  0.40992  0.91399  Biso   1.000  C
  H327     1.0000 0.35887  0.40100  0.83706  Biso   1.000  H
  H328     1.0000 0.38508  0.41112  0.92657  Biso   1.000  H
  C355     1.0000 0.37082  0.09421  0.82459  Biso   1.000  C
  O122     1.0000 0.30330  0.37734  0.85491  Biso   1.000  O
  H329     1.0000 0.33847  0.39300  0.96738  Biso   1.000  H
  H330     1.0000 0.33267  0.46252  0.91285  Biso   1.000  H
  C356     1.0000 0.34397  0.07071  0.85449  Biso   1.000  C
  H331     1.0000 0.39337  0.07632  0.86108  Biso   1.000  H
  H332     1.0000 0.36558  0.07202  0.77270  Biso   1.000  H
  C357     1.0000 0.27288  0.40182  0.84658  Biso   1.000  C
  O123     1.0000 0.31139  0.10058  0.79949  Biso   1.000  O
  H333     1.0000 0.34267  0.01811  0.85557  Biso   1.000  H
  H334     1.0000 0.34957  0.08910  0.90818  Biso   1.000  H
  N85      1.0000 0.24626  0.36907  0.78625  Biso   1.000  N
  N86      1.0000 0.26954  0.45523  0.89308  Biso   1.000  N
  C358     1.0000 0.28204  0.07561  0.80039  Biso   1.000  C
  C359     1.0000 0.21535  0.39589  0.77480  Biso   1.000  C
  C360     1.0000 0.23662  0.47400  0.87480  Biso   1.000  C
  N87      1.0000 0.25388  0.10825  0.74574  Biso   1.000  N
  N88      1.0000 0.28203  0.02263  0.85018  Biso   1.000  N
  O124     1.0000 0.18723  0.36847  0.71416  Biso   1.000  O
  N89      1.0000 0.20816  0.44854  0.81656  Biso   1.000  N
  O125     1.0000 0.23357  0.52665  0.92292  Biso   1.000  O
  C361     1.0000 0.22457  0.08067  0.74340  Biso   1.000  C
  C362     1.0000 0.25040  0.00103  0.83927  Biso   1.000  C
  C363     1.0000 0.19218  0.30739  0.67270  Biso   1.000  C
  C364     1.0000 0.20003  0.55140  0.91219  Biso   1.000  C
  O126     1.0000 0.19411  0.11015  0.69307  Biso   1.000  O
  N90      1.0000 0.22020  0.02529  0.78619  Biso   1.000  N
  O127     1.0000 0.25018  0.94735  0.89032  Biso   1.000  O
  C365     1.0000 0.19423  0.31712  0.59990  Biso   1.000  C
  C366     1.0000 0.19270  0.23901  0.70530  Biso   1.000  C
  C367     1.0000 0.19056  0.61978  0.88146  Biso   1.000  C
  C368     1.0000 0.17934  0.51001  0.93790  Biso   1.000  C
  C369     1.0000 0.19582  0.18010  0.66168  Biso   1.000  C
  C370     1.0000 0.21797  0.91400  0.87570  Biso   1.000  C
  C371     1.0000 0.19762  0.25582  0.55910  Biso   1.000  C
  H335     1.0000 0.19338  0.36331  0.57851  Biso   1.000  H
  H336     1.0000 0.19097  0.23308  0.75437  Biso   1.000  H
  C372     1.0000 0.15871  0.64681  0.87427  Biso   1.000  C
  H337     1.0000 0.20526  0.64757  0.86576  Biso   1.000  H
  C373     1.0000 0.14773  0.53780  0.93017  Biso   1.000  C
  H338     1.0000 0.18647  0.46421  0.95995  Biso   1.000  H
  C374     1.0000 0.19850  0.18690  0.58947  Biso   1.000  C
  C375     1.0000 0.20969  0.85161  0.82951  Biso   1.000  C
  C376     1.0000 0.19681  0.94218  0.91010  Biso   1.000  C
  H339     1.0000 0.19929  0.26142  0.50996  Biso   1.000  H
  C377     1.0000 0.13655  0.60618  0.89787  Biso   1.000  C
  H340     1.0000 0.15198  0.69321  0.85329  Biso   1.000  H
  O128     1.0000 0.12653  0.50022  0.96013  Biso   1.000  O
  H341     1.0000 0.20088  0.14621  0.56179  Biso   1.000  H
  H342     1.0000 0.22487  0.83252  0.80889  Biso   1.000  H
  C378     1.0000 0.17804  0.81832  0.81471  Biso   1.000  C
  C379     1.0000 0.16533  0.90639  0.89338  Biso   1.000  C
  H343     1.0000 0.20318  0.98308  0.94287  Biso   1.000  H
  H344     1.0000 0.11497  0.62418  0.89218  Biso   1.000  H
  C380     1.0000 0.10538  0.44822  0.91357  Biso   1.000  C
  H345     1.0000 0.17169  0.77709  0.78259  Biso   1.000  H
  C381     1.0000 0.15592  0.84568  0.84718  Biso   1.000  C
  O129     1.0000 0.14381  0.93250  0.93083  Biso   1.000  O
  N91      1.0000 0.08584  0.41759  0.94719  Biso   1.000  N
  N92      1.0000 0.10678  0.43331  0.84389  Biso   1.000  N
  H346     1.0000 0.13488  0.82289  0.83760  Biso   1.000  H
  C382     1.0000 0.11854  0.98069  0.89086  Biso   1.000  C
  C383     1.0000 0.06558  0.36521  0.89997  Biso   1.000  C
  C384     1.0000 0.08501  0.37951  0.80476  Biso   1.000  C
  N93      1.0000 0.11458  0.00005  0.81698  Biso   1.000  N
  N94      1.0000 0.10049  0.00348  0.93077  Biso   1.000  N
  O130     1.0000 0.04489  0.33393  0.93233  Biso   1.000  O
  N95      1.0000 0.06342  0.34280  0.82957  Biso   1.000  N
  O131     1.0000 0.08271  0.35819  0.73328  Biso   1.000  O
  C385     1.0000 0.08908  0.04781  0.78427  Biso   1.000  C
  C386     1.0000 0.07604  0.05162  0.89020  Biso   1.000  C
  C387     1.0000 0.03016  0.26529  0.90177  Biso   1.000  C
  C388     1.0000 0.10754  0.38931  0.70518  Biso   1.000  C
  O132     1.0000 0.08160  0.07191  0.71081  Biso   1.000  O
  N96      1.0000 0.06876  0.07670  0.81788  Biso   1.000  N
  O133     1.0000 0.05724  0.07555  0.93011  Biso   1.000  O
  C389     1.0000 0.05150  0.20469  0.92298  Biso   1.000  C
  C390     1.0000 0.99479  0.26050  0.85887  Biso   1.000  C
  H347     1.0000 0.13097  0.37478  0.73987  Biso   1.000  H
  H348     1.0000 0.10620  0.44201  0.70500  Biso   1.000  H
  C391     1.0000 0.09838  0.36118  0.62177  Biso   1.000  C
  C392     1.0000 0.10019  0.04248  0.66647  Biso   1.000  C
  C393     1.0000 0.03607  0.13800  0.90039  Biso   1.000  C
  H349     1.0000 0.07539  0.20899  0.95138  Biso   1.000  H
  C394     1.0000 0.98045  0.19310  0.83646  Biso   1.000  C
  H350     1.0000 0.98099  0.30200  0.84550  Biso   1.000  H
  O134     1.0000 0.10509  0.28209  0.62860  Biso   1.000  O
  H351     1.0000 0.07408  0.37070  0.58870  Biso   1.000  H
  H352     1.0000 0.11249  0.38479  0.59768  Biso   1.000  H
  H353     1.0000 0.09718  0.40568  0.59199  Biso   1.000  H
  H354     1.0000 0.11987  0.33817  0.62626  Biso   1.000  H
  O135     1.0000 0.07358  0.31810  0.56527  Biso   1.000  O
  C395     1.0000 0.07979  0.06712  0.58091  Biso   1.000  C
  H355     1.0000 0.12367  0.06119  0.68660  Biso   1.000  H
  H356     1.0000 0.10097  0.98977  0.66988  Biso   1.000  H
  C396     1.0000 0.00091  0.13049  0.85701  Biso   1.000  C
  H357     1.0000 0.95658  0.18881  0.80710  Biso   1.000  H
  C397     1.0000 0.09988  0.24369  0.55418  Biso   1.000  C
  C398     1.0000 0.09568  0.27257  0.54400  Biso   1.000  C
  O136     1.0000 0.07520  0.13822  0.57090  Biso   1.000  O
  H358     1.0000 0.09169  0.05010  0.54819  Biso   1.000  H
  H359     1.0000 0.05719  0.04390  0.56119  Biso   1.000  H
  H360     1.0000 0.99099  0.08480  0.84161  Biso   1.000  H
  C399     1.0000 0.10458  0.16678  0.59079  Biso   1.000  C
  C400     1.0000 0.09949  0.18821  0.54490  Biso   1.000  C
  H361     1.0000 0.11748  0.25560  0.53417  Biso   1.000  H
  H362     1.0000 0.07688  0.25131  0.51266  Biso   1.000  H
  H363     1.0000 0.11898  0.28998  0.57599  Biso   1.000  H
  H364     1.0000 0.09129  0.28628  0.48917  Biso   1.000  H
  H365     1.0000 0.11888  0.13762  0.57138  Biso   1.000  H
  H366     1.0000 0.11608  0.16971  0.64867  Biso   1.000  H
  H367     1.0000 0.12328  0.17678  0.58001  Biso   1.000  H
  H368     1.0000 0.09639  0.17341  0.49127  Biso   1.000  H
