data_image0
_cell_length_a       24.51
_cell_length_b       24.51
_cell_length_c       24.51
_cell_angle_alpha    90
_cell_angle_beta     90
_cell_angle_gamma    90

_symmetry_space_group_name_H-M    "P 1"
_symmetry_int_tables_number       1

loop_
  _symmetry_equiv_pos_as_xyz
  'x, y, z'

loop_
  _atom_site_label
  _atom_site_occupancy
  _atom_site_fract_x
  _atom_site_fract_y
  _atom_site_fract_z
  _atom_site_thermal_displace_type
  _atom_site_B_iso_or_equiv
  _atom_site_type_symbol
  C1       1.0000 0.38539  0.19270  0.36328  Biso   1.000  C
  C2       1.0000 0.39661  0.16002  0.31881  Biso   1.000  C
  C3       1.0000 0.33998  0.18119  0.39661  Biso   1.000  C
  H1       1.0000 0.40779  0.22232  0.37132  Biso   1.000  H
  C4       1.0000 0.44382  0.17421  0.28641  Biso   1.000  C
  C5       1.0000 0.36328  0.11461  0.30730  Biso   1.000  C
  C6       1.0000 0.32579  0.21359  0.44382  Biso   1.000  C
  C7       1.0000 0.30730  0.13672  0.38539  Biso   1.000  C
  N1       1.0000 0.47479  0.21240  0.29490  Biso   1.000  N
  H2       1.0000 0.45120  0.15218  0.25639  Biso   1.000  H
  C8       1.0000 0.31881  0.10339  0.33998  Biso   1.000  C
  H3       1.0000 0.37132  0.09221  0.27768  Biso   1.000  H
  N2       1.0000 0.28760  0.20510  0.47479  Biso   1.000  N
  H4       1.0000 0.34782  0.24361  0.45120  Biso   1.000  H
  H5       1.0000 0.27768  0.12868  0.40779  Biso   1.000  H
  C9       1.0000 0.52142  0.22142  0.25912  Biso   1.000  C
  C10      1.0000 0.28641  0.05618  0.32579  Biso   1.000  C
  C11      1.0000 0.27858  0.24088  0.52142  Biso   1.000  C
  C12      1.0000 0.52142  0.27858  0.24088  Biso   1.000  C
  C13      1.0000 0.57222  0.20710  0.29098  Biso   1.000  C
  H6       1.0000 0.51860  0.19731  0.22721  Biso   1.000  H
  N3       1.0000 0.29490  0.02521  0.28760  Biso   1.000  N
  H7       1.0000 0.25639  0.04880  0.34782  Biso   1.000  H
  C14      1.0000 0.22142  0.25912  0.52142  Biso   1.000  C
  C15      1.0000 0.29290  0.20902  0.57222  Biso   1.000  C
  H8       1.0000 0.30269  0.27279  0.51860  Biso   1.000  H
  N4       1.0000 0.47479  0.28760  0.20510  Biso   1.000  N
  C16      1.0000 0.57222  0.29290  0.20902  Biso   1.000  C
  H9       1.0000 0.51860  0.30269  0.27279  Biso   1.000  H
  C17      1.0000 0.62252  0.21987  0.25712  Biso   1.000  C
  H10      1.0000 0.57181  0.16858  0.30041  Biso   1.000  H
  H11      1.0000 0.57311  0.22791  0.32468  Biso   1.000  H
  C18      1.0000 0.25912  0.97858  0.27858  Biso   1.000  C
  N5       1.0000 0.21240  0.29490  0.47479  Biso   1.000  N
  C19      1.0000 0.20710  0.29098  0.57222  Biso   1.000  C
  H12      1.0000 0.19731  0.22721  0.51860  Biso   1.000  H
  C20      1.0000 0.28013  0.24288  0.62252  Biso   1.000  C
  H13      1.0000 0.33142  0.19959  0.57181  Biso   1.000  H
  H14      1.0000 0.27209  0.17532  0.57311  Biso   1.000  H
  C21      1.0000 0.44382  0.32579  0.21359  Biso   1.000  C
  C22      1.0000 0.62252  0.28013  0.24288  Biso   1.000  C
  H15      1.0000 0.57181  0.33142  0.19959  Biso   1.000  H
  H16      1.0000 0.57311  0.27209  0.17532  Biso   1.000  H
  H17      1.0000 0.65520  0.21081  0.27752  Biso   1.000  H
  H18      1.0000 0.62220  0.19829  0.22391  Biso   1.000  H
  C23      1.0000 0.24088  0.97858  0.22142  Biso   1.000  C
  C24      1.0000 0.29098  0.92778  0.29290  Biso   1.000  C
  H19      1.0000 0.22721  0.98140  0.30269  Biso   1.000  H
  C25      1.0000 0.17421  0.28641  0.44382  Biso   1.000  C
  C26      1.0000 0.21987  0.25712  0.62252  Biso   1.000  C
  H20      1.0000 0.16858  0.30041  0.57181  Biso   1.000  H
  H21      1.0000 0.22791  0.32468  0.57311  Biso   1.000  H
  H22      1.0000 0.28919  0.22248  0.65520  Biso   1.000  H
  H23      1.0000 0.30171  0.27609  0.62220  Biso   1.000  H
  C27      1.0000 0.39661  0.33998  0.18119  Biso   1.000  C
  H24      1.0000 0.45120  0.34782  0.24361  Biso   1.000  H
  H25      1.0000 0.65520  0.28919  0.22248  Biso   1.000  H
  H26      1.0000 0.62220  0.30171  0.27609  Biso   1.000  H
  N6       1.0000 0.20510  0.02521  0.21240  Biso   1.000  N
  C28      1.0000 0.20902  0.92778  0.20710  Biso   1.000  C
  H27      1.0000 0.27279  0.98140  0.19731  Biso   1.000  H
  C29      1.0000 0.25712  0.87748  0.28013  Biso   1.000  C
  H28      1.0000 0.30041  0.92819  0.33142  Biso   1.000  H
  H29      1.0000 0.32468  0.92689  0.27209  Biso   1.000  H
  C30      1.0000 0.16002  0.31881  0.39661  Biso   1.000  C
  H30      1.0000 0.15218  0.25639  0.45120  Biso   1.000  H
  H31      1.0000 0.21081  0.27752  0.65520  Biso   1.000  H
  H32      1.0000 0.19829  0.22391  0.62220  Biso   1.000  H
  C31      1.0000 0.38539  0.30730  0.13672  Biso   1.000  C
  C32      1.0000 0.36328  0.38539  0.19270  Biso   1.000  C
  C33      1.0000 0.21359  0.05618  0.17421  Biso   1.000  C
  C34      1.0000 0.24288  0.87748  0.21987  Biso   1.000  C
  H33      1.0000 0.19959  0.92819  0.16858  Biso   1.000  H
  H34      1.0000 0.17532  0.92689  0.22791  Biso   1.000  H
  H35      1.0000 0.27752  0.84480  0.28919  Biso   1.000  H
  H36      1.0000 0.22391  0.87780  0.30171  Biso   1.000  H
  C35      1.0000 0.19270  0.36328  0.38539  Biso   1.000  C
  C36      1.0000 0.11461  0.30730  0.36328  Biso   1.000  C
  C37      1.0000 0.33998  0.31881  0.10339  Biso   1.000  C
  H37      1.0000 0.40779  0.27768  0.12868  Biso   1.000  H
  C38      1.0000 0.31881  0.39661  0.16002  Biso   1.000  C
  H38      1.0000 0.37132  0.40779  0.22232  Biso   1.000  H
  C39      1.0000 0.18119  0.10339  0.16002  Biso   1.000  C
  H39      1.0000 0.24361  0.04880  0.15218  Biso   1.000  H
  H40      1.0000 0.22248  0.84480  0.21081  Biso   1.000  H
  H41      1.0000 0.27609  0.87780  0.19829  Biso   1.000  H
  C40      1.0000 0.18119  0.39661  0.33998  Biso   1.000  C
  H42      1.0000 0.22232  0.37132  0.40779  Biso   1.000  H
  C41      1.0000 0.10339  0.33998  0.31881  Biso   1.000  C
  H43      1.0000 0.09221  0.27768  0.37132  Biso   1.000  H
  C42      1.0000 0.32579  0.28641  0.05618  Biso   1.000  C
  C43      1.0000 0.30730  0.36328  0.11461  Biso   1.000  C
  C44      1.0000 0.28641  0.44382  0.17421  Biso   1.000  C
  C45      1.0000 0.19270  0.13672  0.11461  Biso   1.000  C
  C46      1.0000 0.13672  0.11461  0.19270  Biso   1.000  C
  C47      1.0000 0.21359  0.44382  0.32579  Biso   1.000  C
  C48      1.0000 0.13672  0.38539  0.30730  Biso   1.000  C
  C49      1.0000 0.05618  0.32579  0.28641  Biso   1.000  C
  N7       1.0000 0.28760  0.29490  0.02521  Biso   1.000  N
  H44      1.0000 0.34782  0.25639  0.04880  Biso   1.000  H
  H45      1.0000 0.27768  0.37132  0.09221  Biso   1.000  H
  N8       1.0000 0.29490  0.47479  0.21240  Biso   1.000  N
  H46      1.0000 0.25639  0.45120  0.15218  Biso   1.000  H
  C50      1.0000 0.16002  0.18119  0.10339  Biso   1.000  C
  H47      1.0000 0.22232  0.12868  0.09221  Biso   1.000  H
  C51      1.0000 0.10339  0.16002  0.18119  Biso   1.000  C
  H48      1.0000 0.12868  0.09221  0.22232  Biso   1.000  H
  N9       1.0000 0.20510  0.47479  0.28760  Biso   1.000  N
  H49      1.0000 0.24361  0.45120  0.34782  Biso   1.000  H
  H50      1.0000 0.12868  0.40779  0.27768  Biso   1.000  H
  N10      1.0000 0.02521  0.28760  0.29490  Biso   1.000  N
  H51      1.0000 0.04880  0.34782  0.25639  Biso   1.000  H
  C52      1.0000 0.27858  0.25912  0.97858  Biso   1.000  C
  C53      1.0000 0.25912  0.52142  0.22142  Biso   1.000  C
  C54      1.0000 0.17421  0.21359  0.05618  Biso   1.000  C
  C55      1.0000 0.11461  0.19270  0.13672  Biso   1.000  C
  C56      1.0000 0.05618  0.17421  0.21359  Biso   1.000  C
  C57      1.0000 0.24088  0.52142  0.27858  Biso   1.000  C
  C58      1.0000 0.97858  0.27858  0.25912  Biso   1.000  C
  C59      1.0000 0.22142  0.24088  0.97858  Biso   1.000  C
  C60      1.0000 0.29290  0.29098  0.92778  Biso   1.000  C
  H52      1.0000 0.30269  0.22721  0.98140  Biso   1.000  H
  C61      1.0000 0.29098  0.57222  0.20710  Biso   1.000  C
  H53      1.0000 0.22721  0.51860  0.19731  Biso   1.000  H
  N11      1.0000 0.21240  0.20510  0.02521  Biso   1.000  N
  H54      1.0000 0.15218  0.24361  0.04880  Biso   1.000  H
  H55      1.0000 0.09221  0.22232  0.12868  Biso   1.000  H
  N12      1.0000 0.02521  0.21240  0.20510  Biso   1.000  N
  H56      1.0000 0.04880  0.15218  0.24361  Biso   1.000  H
  C62      1.0000 0.20902  0.57222  0.29290  Biso   1.000  C
  H57      1.0000 0.27279  0.51860  0.30269  Biso   1.000  H
  C63      1.0000 0.97858  0.22142  0.24088  Biso   1.000  C
  C64      1.0000 0.92778  0.29290  0.29098  Biso   1.000  C
  H58      1.0000 0.98140  0.30269  0.22721  Biso   1.000  H
  C65      1.0000 0.20710  0.20902  0.92778  Biso   1.000  C
  H59      1.0000 0.19731  0.27279  0.98140  Biso   1.000  H
  C66      1.0000 0.28013  0.25712  0.87748  Biso   1.000  C
  H60      1.0000 0.33142  0.30041  0.92819  Biso   1.000  H
  H61      1.0000 0.27209  0.32468  0.92689  Biso   1.000  H
  C67      1.0000 0.25712  0.62252  0.21987  Biso   1.000  C
  H62      1.0000 0.30041  0.57181  0.16858  Biso   1.000  H
  H63      1.0000 0.32468  0.57311  0.22791  Biso   1.000  H
  C68      1.0000 0.24288  0.62252  0.28013  Biso   1.000  C
  H64      1.0000 0.19959  0.57181  0.33142  Biso   1.000  H
  H65      1.0000 0.17532  0.57311  0.27209  Biso   1.000  H
  C69      1.0000 0.92778  0.20710  0.20902  Biso   1.000  C
  H66      1.0000 0.98140  0.19731  0.27279  Biso   1.000  H
  C70      1.0000 0.87748  0.28013  0.25712  Biso   1.000  C
  H67      1.0000 0.92819  0.33142  0.30041  Biso   1.000  H
  H68      1.0000 0.92689  0.27209  0.32468  Biso   1.000  H
  C71      1.0000 0.21987  0.24288  0.87748  Biso   1.000  C
  H69      1.0000 0.16858  0.19959  0.92819  Biso   1.000  H
  H70      1.0000 0.22791  0.17532  0.92689  Biso   1.000  H
  H71      1.0000 0.28919  0.27752  0.84480  Biso   1.000  H
  H72      1.0000 0.30171  0.22391  0.87780  Biso   1.000  H
  H73      1.0000 0.27752  0.65520  0.21081  Biso   1.000  H
  H74      1.0000 0.22391  0.62220  0.19829  Biso   1.000  H
  H75      1.0000 0.22248  0.65520  0.28919  Biso   1.000  H
  H76      1.0000 0.27609  0.62220  0.30171  Biso   1.000  H
  C72      1.0000 0.87748  0.21987  0.24288  Biso   1.000  C
  H77      1.0000 0.92819  0.16858  0.19959  Biso   1.000  H
  H78      1.0000 0.92689  0.22791  0.17532  Biso   1.000  H
  H79      1.0000 0.84480  0.28919  0.27752  Biso   1.000  H
  H80      1.0000 0.87780  0.30171  0.22391  Biso   1.000  H
  H81      1.0000 0.21081  0.22248  0.84480  Biso   1.000  H
  H82      1.0000 0.19829  0.27609  0.87780  Biso   1.000  H
  H83      1.0000 0.84480  0.21081  0.22248  Biso   1.000  H
  H84      1.0000 0.87780  0.19829  0.27609  Biso   1.000  H
  C73      1.0000 0.53860  0.30261  0.42330  Biso   1.000  C
  N13      1.0000 0.54876  0.27421  0.46389  Biso   1.000  N
  C74      1.0000 0.57311  0.35071  0.40959  Biso   1.000  C
  H85      1.0000 0.50910  0.29380  0.40110  Biso   1.000  H
  C75      1.0000 0.51191  0.22913  0.47099  Biso   1.000  C
  C76      1.0000 0.55961  0.38270  0.36532  Biso   1.000  C
  C77      1.0000 0.61730  0.36532  0.44039  Biso   1.000  C
  C78      1.0000 0.48809  0.22913  0.52901  Biso   1.000  C
  H86      1.0000 0.53109  0.19510  0.46459  Biso   1.000  H
  H87      1.0000 0.48250  0.23178  0.44472  Biso   1.000  H
  C79      1.0000 0.59041  0.42689  0.35071  Biso   1.000  C
  H88      1.0000 0.52889  0.37389  0.34480  Biso   1.000  H
  C80      1.0000 0.64929  0.40959  0.42689  Biso   1.000  C
  H89      1.0000 0.62611  0.34480  0.47111  Biso   1.000  H
  N14      1.0000 0.45124  0.27421  0.53611  Biso   1.000  N
  H90      1.0000 0.46891  0.19510  0.53541  Biso   1.000  H
  H91      1.0000 0.51750  0.23178  0.55528  Biso   1.000  H
  C81      1.0000 0.57670  0.46140  0.30261  Biso   1.000  C
  C82      1.0000 0.63468  0.44039  0.38270  Biso   1.000  C
  C83      1.0000 0.69739  0.42330  0.46140  Biso   1.000  C
  C84      1.0000 0.46140  0.30261  0.57670  Biso   1.000  C
  N15      1.0000 0.53611  0.45124  0.27421  Biso   1.000  N
  H92      1.0000 0.59890  0.49090  0.29380  Biso   1.000  H
  H93      1.0000 0.65520  0.47111  0.37389  Biso   1.000  H
  N16      1.0000 0.72579  0.46389  0.45124  Biso   1.000  N
  H94      1.0000 0.70620  0.40110  0.49090  Biso   1.000  H
  C85      1.0000 0.42689  0.35071  0.59041  Biso   1.000  C
  H95      1.0000 0.49090  0.29380  0.59890  Biso   1.000  H
  C86      1.0000 0.52901  0.48809  0.22913  Biso   1.000  C
  C87      1.0000 0.77087  0.47099  0.48809  Biso   1.000  C
  C88      1.0000 0.44039  0.38270  0.63468  Biso   1.000  C
  C89      1.0000 0.38270  0.36532  0.55961  Biso   1.000  C
  C90      1.0000 0.47099  0.51191  0.22913  Biso   1.000  C
  H96      1.0000 0.53541  0.46891  0.19510  Biso   1.000  H
  H97      1.0000 0.55528  0.51750  0.23178  Biso   1.000  H
  C91      1.0000 0.77087  0.52901  0.51191  Biso   1.000  C
  H98      1.0000 0.80490  0.46459  0.46891  Biso   1.000  H
  H99      1.0000 0.76822  0.44472  0.51750  Biso   1.000  H
  C92      1.0000 0.40959  0.42689  0.64929  Biso   1.000  C
  H100     1.0000 0.47111  0.37389  0.65520  Biso   1.000  H
  C93      1.0000 0.35071  0.40959  0.57311  Biso   1.000  C
  H101     1.0000 0.37389  0.34480  0.52889  Biso   1.000  H
  N17      1.0000 0.46389  0.54876  0.27421  Biso   1.000  N
  H102     1.0000 0.46459  0.53109  0.19510  Biso   1.000  H
  H103     1.0000 0.44472  0.48250  0.23178  Biso   1.000  H
  N18      1.0000 0.72579  0.53611  0.54876  Biso   1.000  N
  H104     1.0000 0.80490  0.53541  0.53109  Biso   1.000  H
  H105     1.0000 0.76822  0.55528  0.48250  Biso   1.000  H
  C94      1.0000 0.42330  0.46140  0.69739  Biso   1.000  C
  C95      1.0000 0.36532  0.44039  0.61730  Biso   1.000  C
  C96      1.0000 0.30261  0.42330  0.53860  Biso   1.000  C
  C97      1.0000 0.42330  0.53860  0.30261  Biso   1.000  C
  C98      1.0000 0.69739  0.57670  0.53860  Biso   1.000  C
  N19      1.0000 0.46389  0.45124  0.72579  Biso   1.000  N
  H106     1.0000 0.40110  0.49090  0.70620  Biso   1.000  H
  H107     1.0000 0.34480  0.47111  0.62611  Biso   1.000  H
  N20      1.0000 0.27421  0.46389  0.54876  Biso   1.000  N
  H108     1.0000 0.29380  0.40110  0.50910  Biso   1.000  H
  C99      1.0000 0.40959  0.57311  0.35071  Biso   1.000  C
  H109     1.0000 0.40110  0.50910  0.29380  Biso   1.000  H
  C100     1.0000 0.64929  0.59041  0.57311  Biso   1.000  C
  H110     1.0000 0.70620  0.59890  0.50910  Biso   1.000  H
  C101     1.0000 0.47099  0.48809  0.77087  Biso   1.000  C
  C102     1.0000 0.22913  0.47099  0.51191  Biso   1.000  C
  C103     1.0000 0.36532  0.55961  0.38270  Biso   1.000  C
  C104     1.0000 0.44039  0.61730  0.36532  Biso   1.000  C
  C105     1.0000 0.61730  0.63468  0.55961  Biso   1.000  C
  C106     1.0000 0.63468  0.55961  0.61730  Biso   1.000  C
  C107     1.0000 0.52901  0.51191  0.77087  Biso   1.000  C
  H111     1.0000 0.46459  0.46891  0.80490  Biso   1.000  H
  H112     1.0000 0.44472  0.51750  0.76822  Biso   1.000  H
  C108     1.0000 0.22913  0.52901  0.48809  Biso   1.000  C
  H113     1.0000 0.19510  0.46459  0.53109  Biso   1.000  H
  H114     1.0000 0.23178  0.44472  0.48250  Biso   1.000  H
  C109     1.0000 0.35071  0.59041  0.42689  Biso   1.000  C
  H115     1.0000 0.34480  0.52889  0.37389  Biso   1.000  H
  C110     1.0000 0.42689  0.64929  0.40959  Biso   1.000  C
  H116     1.0000 0.47111  0.62611  0.34480  Biso   1.000  H
  C111     1.0000 0.57311  0.64929  0.59041  Biso   1.000  C
  H117     1.0000 0.62611  0.65520  0.52889  Biso   1.000  H
  C112     1.0000 0.59041  0.57311  0.64929  Biso   1.000  C
  H118     1.0000 0.65520  0.52889  0.62611  Biso   1.000  H
  N21      1.0000 0.53611  0.54876  0.72579  Biso   1.000  N
  H119     1.0000 0.53541  0.53109  0.80490  Biso   1.000  H
  H120     1.0000 0.55528  0.48250  0.76822  Biso   1.000  H
  N22      1.0000 0.27421  0.53611  0.45124  Biso   1.000  N
  H121     1.0000 0.19510  0.53541  0.46891  Biso   1.000  H
  H122     1.0000 0.23178  0.55528  0.51750  Biso   1.000  H
  C113     1.0000 0.30261  0.57670  0.46140  Biso   1.000  C
  C114     1.0000 0.38270  0.63468  0.44039  Biso   1.000  C
  C115     1.0000 0.46140  0.69739  0.42330  Biso   1.000  C
  C116     1.0000 0.53860  0.69739  0.57670  Biso   1.000  C
  C117     1.0000 0.55961  0.61730  0.63468  Biso   1.000  C
  C118     1.0000 0.57670  0.53860  0.69739  Biso   1.000  C
  H123     1.0000 0.29380  0.59890  0.49090  Biso   1.000  H
  H124     1.0000 0.37389  0.65520  0.47111  Biso   1.000  H
  N23      1.0000 0.45124  0.72579  0.46389  Biso   1.000  N
  H125     1.0000 0.49090  0.70620  0.40110  Biso   1.000  H
  N24      1.0000 0.54876  0.72579  0.53611  Biso   1.000  N
  H126     1.0000 0.50910  0.70620  0.59890  Biso   1.000  H
  H127     1.0000 0.52889  0.62611  0.65520  Biso   1.000  H
  H128     1.0000 0.59890  0.50910  0.70620  Biso   1.000  H
  C119     1.0000 0.48809  0.77087  0.47099  Biso   1.000  C
  C120     1.0000 0.51191  0.77087  0.52901  Biso   1.000  C
  H129     1.0000 0.46891  0.80490  0.46459  Biso   1.000  H
  H130     1.0000 0.51750  0.76822  0.44472  Biso   1.000  H
  H131     1.0000 0.53109  0.80490  0.53541  Biso   1.000  H
  H132     1.0000 0.48250  0.76822  0.55528  Biso   1.000  H
  C121     1.0000 0.53860  0.19739  0.07670  Biso   1.000  C
  N25      1.0000 0.54876  0.22579  0.03611  Biso   1.000  N
  C122     1.0000 0.57311  0.14929  0.09041  Biso   1.000  C
  H133     1.0000 0.50910  0.20620  0.09890  Biso   1.000  H
  C123     1.0000 0.51191  0.27087  0.02901  Biso   1.000  C
  C124     1.0000 0.61730  0.13468  0.05961  Biso   1.000  C
  C125     1.0000 0.55961  0.11730  0.13468  Biso   1.000  C
  H134     1.0000 0.53109  0.30490  0.03541  Biso   1.000  H
  H135     1.0000 0.48250  0.26822  0.05528  Biso   1.000  H
  C126     1.0000 0.48809  0.27087  0.97099  Biso   1.000  C
  H136     1.0000 0.62611  0.15520  0.02889  Biso   1.000  H
  C127     1.0000 0.64929  0.09041  0.07311  Biso   1.000  C
  C128     1.0000 0.59041  0.07311  0.14929  Biso   1.000  C
  H137     1.0000 0.52889  0.12611  0.15520  Biso   1.000  H
  N26      1.0000 0.45124  0.22579  0.96389  Biso   1.000  N
  H138     1.0000 0.46891  0.30490  0.96459  Biso   1.000  H
  H139     1.0000 0.51750  0.26822  0.94472  Biso   1.000  H
  C129     1.0000 0.69739  0.07670  0.03860  Biso   1.000  C
  C130     1.0000 0.63468  0.05961  0.11730  Biso   1.000  C
  C131     1.0000 0.57670  0.03860  0.19739  Biso   1.000  C
  C132     1.0000 0.46140  0.19739  0.92330  Biso   1.000  C
  N27      1.0000 0.72579  0.03611  0.04876  Biso   1.000  N
  H140     1.0000 0.70620  0.09890  0.00910  Biso   1.000  H
  H141     1.0000 0.65520  0.02889  0.12611  Biso   1.000  H
  N28      1.0000 0.53611  0.04876  0.22579  Biso   1.000  N
  H142     1.0000 0.59890  0.00910  0.20620  Biso   1.000  H
  C133     1.0000 0.42689  0.14929  0.90959  Biso   1.000  C
  H143     1.0000 0.49090  0.20620  0.90110  Biso   1.000  H
  C134     1.0000 0.77087  0.02901  0.01191  Biso   1.000  C
  C135     1.0000 0.52901  0.01191  0.27087  Biso   1.000  C
  C136     1.0000 0.38270  0.13468  0.94039  Biso   1.000  C
  C137     1.0000 0.44039  0.11730  0.86532  Biso   1.000  C
  H144     1.0000 0.80490  0.03541  0.03109  Biso   1.000  H
  C138     1.0000 0.77087  0.97099  0.98809  Biso   1.000  C
  H145     1.0000 0.76822  0.05528  0.98250  Biso   1.000  H
  H146     1.0000 0.53541  0.03109  0.30490  Biso   1.000  H
  C139     1.0000 0.47099  0.98809  0.27087  Biso   1.000  C
  H147     1.0000 0.55528  0.98250  0.26822  Biso   1.000  H
  C140     1.0000 0.35071  0.09041  0.92689  Biso   1.000  C
  H148     1.0000 0.37389  0.15520  0.97111  Biso   1.000  H
  C141     1.0000 0.40959  0.07311  0.85071  Biso   1.000  C
  H149     1.0000 0.47111  0.12611  0.84480  Biso   1.000  H
  N29      1.0000 0.72579  0.96389  0.95124  Biso   1.000  N
  H150     1.0000 0.80490  0.96459  0.96891  Biso   1.000  H
  H151     1.0000 0.76822  0.94472  0.01750  Biso   1.000  H
  H152     1.0000 0.44472  0.01750  0.26822  Biso   1.000  H
  N30      1.0000 0.46389  0.95124  0.22579  Biso   1.000  N
  H153     1.0000 0.46459  0.96891  0.30490  Biso   1.000  H
  C142     1.0000 0.30261  0.07670  0.96140  Biso   1.000  C
  C143     1.0000 0.36532  0.05961  0.88270  Biso   1.000  C
  C144     1.0000 0.42330  0.03860  0.80261  Biso   1.000  C
  C145     1.0000 0.69739  0.92330  0.96140  Biso   1.000  C
  C146     1.0000 0.42330  0.96140  0.19739  Biso   1.000  C
  N31      1.0000 0.27421  0.03611  0.95124  Biso   1.000  N
  H154     1.0000 0.29380  0.09890  0.99090  Biso   1.000  H
  H155     1.0000 0.34480  0.02889  0.87389  Biso   1.000  H
  N32      1.0000 0.46389  0.04876  0.77421  Biso   1.000  N
  H156     1.0000 0.40110  0.00910  0.79380  Biso   1.000  H
  C147     1.0000 0.64929  0.90959  0.92689  Biso   1.000  C
  H157     1.0000 0.70620  0.90110  0.99090  Biso   1.000  H
  C148     1.0000 0.40959  0.92689  0.14929  Biso   1.000  C
  H158     1.0000 0.40110  0.99090  0.20620  Biso   1.000  H
  C149     1.0000 0.22913  0.02901  0.98809  Biso   1.000  C
  C150     1.0000 0.47099  0.01191  0.72913  Biso   1.000  C
  C151     1.0000 0.63468  0.94039  0.88270  Biso   1.000  C
  C152     1.0000 0.61730  0.86532  0.94039  Biso   1.000  C
  C153     1.0000 0.36532  0.94039  0.11730  Biso   1.000  C
  C154     1.0000 0.44039  0.88270  0.13468  Biso   1.000  C
  H159     1.0000 0.23178  0.05528  0.01750  Biso   1.000  H
  C155     1.0000 0.22913  0.97099  0.01191  Biso   1.000  C
  H160     1.0000 0.19510  0.03541  0.96891  Biso   1.000  H
  C156     1.0000 0.52901  0.98809  0.72913  Biso   1.000  C
  H161     1.0000 0.44472  0.98250  0.73178  Biso   1.000  H
  H162     1.0000 0.46459  0.03109  0.69510  Biso   1.000  H
  C157     1.0000 0.59041  0.92689  0.85071  Biso   1.000  C
  H163     1.0000 0.65520  0.97111  0.87389  Biso   1.000  H
  C158     1.0000 0.57311  0.85071  0.90959  Biso   1.000  C
  H164     1.0000 0.62611  0.84480  0.97111  Biso   1.000  H
  C159     1.0000 0.35071  0.90959  0.07311  Biso   1.000  C
  H165     1.0000 0.34480  0.97111  0.12611  Biso   1.000  H
  C160     1.0000 0.42689  0.85071  0.09041  Biso   1.000  C
  H166     1.0000 0.47111  0.87389  0.15520  Biso   1.000  H
  H167     1.0000 0.23178  0.94472  0.98250  Biso   1.000  H
  N33      1.0000 0.27421  0.96389  0.04876  Biso   1.000  N
  H168     1.0000 0.19510  0.96459  0.03109  Biso   1.000  H
  N34      1.0000 0.53611  0.95124  0.77421  Biso   1.000  N
  H169     1.0000 0.53541  0.96891  0.69510  Biso   1.000  H
  H170     1.0000 0.55528  0.01750  0.73178  Biso   1.000  H
  C161     1.0000 0.57670  0.96140  0.80261  Biso   1.000  C
  C162     1.0000 0.55961  0.88270  0.86532  Biso   1.000  C
  C163     1.0000 0.53860  0.80261  0.92330  Biso   1.000  C
  C164     1.0000 0.30261  0.92330  0.03860  Biso   1.000  C
  C165     1.0000 0.38270  0.86532  0.05961  Biso   1.000  C
  C166     1.0000 0.46140  0.80261  0.07670  Biso   1.000  C
  H171     1.0000 0.59890  0.99090  0.79380  Biso   1.000  H
  H172     1.0000 0.52889  0.87389  0.84480  Biso   1.000  H
  N35      1.0000 0.54876  0.77421  0.96389  Biso   1.000  N
  H173     1.0000 0.50910  0.79380  0.90110  Biso   1.000  H
  H174     1.0000 0.29380  0.90110  0.00910  Biso   1.000  H
  H175     1.0000 0.37389  0.84480  0.02889  Biso   1.000  H
  N36      1.0000 0.45124  0.77421  0.03611  Biso   1.000  N
  H176     1.0000 0.49090  0.79380  0.09890  Biso   1.000  H
  C167     1.0000 0.51191  0.72913  0.97099  Biso   1.000  C
  C168     1.0000 0.48809  0.72913  0.02901  Biso   1.000  C
  H177     1.0000 0.53109  0.69510  0.96459  Biso   1.000  H
  H178     1.0000 0.48250  0.73178  0.94472  Biso   1.000  H
  H179     1.0000 0.46891  0.69510  0.03541  Biso   1.000  H
  H180     1.0000 0.51750  0.73178  0.05528  Biso   1.000  H
  C169     1.0000 0.19739  0.07670  0.53860  Biso   1.000  C
  N37      1.0000 0.22579  0.03611  0.54876  Biso   1.000  N
  C170     1.0000 0.14929  0.09041  0.57311  Biso   1.000  C
  H181     1.0000 0.20620  0.09890  0.50910  Biso   1.000  H
  C171     1.0000 0.27087  0.02901  0.51191  Biso   1.000  C
  C172     1.0000 0.13468  0.05961  0.61730  Biso   1.000  C
  C173     1.0000 0.11730  0.13468  0.55961  Biso   1.000  C
  H182     1.0000 0.30490  0.03541  0.53109  Biso   1.000  H
  H183     1.0000 0.26822  0.05528  0.48250  Biso   1.000  H
  C174     1.0000 0.27087  0.97099  0.48809  Biso   1.000  C
  H184     1.0000 0.15520  0.02889  0.62611  Biso   1.000  H
  C175     1.0000 0.09041  0.07311  0.64929  Biso   1.000  C
  C176     1.0000 0.07311  0.14929  0.59041  Biso   1.000  C
  H185     1.0000 0.12611  0.15520  0.52889  Biso   1.000  H
  N38      1.0000 0.22579  0.96389  0.45124  Biso   1.000  N
  H186     1.0000 0.30490  0.96459  0.46891  Biso   1.000  H
  H187     1.0000 0.26822  0.94472  0.51750  Biso   1.000  H
  C177     1.0000 0.07670  0.03860  0.69739  Biso   1.000  C
  C178     1.0000 0.05961  0.11730  0.63468  Biso   1.000  C
  C179     1.0000 0.03860  0.19739  0.57670  Biso   1.000  C
  C180     1.0000 0.19739  0.92330  0.46140  Biso   1.000  C
  N39      1.0000 0.03611  0.04876  0.72579  Biso   1.000  N
  H188     1.0000 0.09890  0.00910  0.70620  Biso   1.000  H
  H189     1.0000 0.02889  0.12611  0.65520  Biso   1.000  H
  N40      1.0000 0.04876  0.22579  0.53611  Biso   1.000  N
  H190     1.0000 0.00910  0.20620  0.59890  Biso   1.000  H
  C181     1.0000 0.14929  0.90959  0.42689  Biso   1.000  C
  H191     1.0000 0.20620  0.90110  0.49090  Biso   1.000  H
  C182     1.0000 0.02901  0.01191  0.77087  Biso   1.000  C
  C183     1.0000 0.01191  0.27087  0.52901  Biso   1.000  C
  C184     1.0000 0.13468  0.94039  0.38270  Biso   1.000  C
  C185     1.0000 0.11730  0.86532  0.44039  Biso   1.000  C
  H192     1.0000 0.03541  0.03109  0.80490  Biso   1.000  H
  C186     1.0000 0.97099  0.98809  0.77087  Biso   1.000  C
  H193     1.0000 0.05528  0.98250  0.76822  Biso   1.000  H
  H194     1.0000 0.03109  0.30490  0.53541  Biso   1.000  H
  C187     1.0000 0.98809  0.27087  0.47099  Biso   1.000  C
  H195     1.0000 0.98250  0.26822  0.55528  Biso   1.000  H
  C188     1.0000 0.09041  0.92689  0.35071  Biso   1.000  C
  H196     1.0000 0.15520  0.97111  0.37389  Biso   1.000  H
  C189     1.0000 0.07311  0.85071  0.40959  Biso   1.000  C
  H197     1.0000 0.12611  0.84480  0.47111  Biso   1.000  H
  N41      1.0000 0.96389  0.95124  0.72579  Biso   1.000  N
  H198     1.0000 0.96459  0.96891  0.80490  Biso   1.000  H
  H199     1.0000 0.94472  0.01750  0.76822  Biso   1.000  H
  H200     1.0000 0.01750  0.26822  0.44472  Biso   1.000  H
  N42      1.0000 0.95124  0.22579  0.46389  Biso   1.000  N
  H201     1.0000 0.96891  0.30490  0.46459  Biso   1.000  H
  C190     1.0000 0.07670  0.96140  0.30261  Biso   1.000  C
  C191     1.0000 0.05961  0.88270  0.36532  Biso   1.000  C
  C192     1.0000 0.03860  0.80261  0.42330  Biso   1.000  C
  C193     1.0000 0.92330  0.96140  0.69739  Biso   1.000  C
  C194     1.0000 0.96140  0.19739  0.42330  Biso   1.000  C
  N43      1.0000 0.03611  0.95124  0.27421  Biso   1.000  N
  H202     1.0000 0.09890  0.99090  0.29380  Biso   1.000  H
  H203     1.0000 0.02889  0.87389  0.34480  Biso   1.000  H
  N44      1.0000 0.04876  0.77421  0.46389  Biso   1.000  N
  H204     1.0000 0.00910  0.79380  0.40110  Biso   1.000  H
  C195     1.0000 0.90959  0.92689  0.64929  Biso   1.000  C
  H205     1.0000 0.90110  0.99090  0.70620  Biso   1.000  H
  C196     1.0000 0.92689  0.14929  0.40959  Biso   1.000  C
  H206     1.0000 0.99090  0.20620  0.40110  Biso   1.000  H
  C197     1.0000 0.02901  0.98809  0.22913  Biso   1.000  C
  C198     1.0000 0.01191  0.72913  0.47099  Biso   1.000  C
  C199     1.0000 0.94039  0.88270  0.63468  Biso   1.000  C
  C200     1.0000 0.86532  0.94039  0.61730  Biso   1.000  C
  C201     1.0000 0.94039  0.11730  0.36532  Biso   1.000  C
  C202     1.0000 0.88270  0.13468  0.44039  Biso   1.000  C
  H207     1.0000 0.05528  0.01750  0.23178  Biso   1.000  H
  C203     1.0000 0.97099  0.01191  0.22913  Biso   1.000  C
  H208     1.0000 0.03541  0.96891  0.19510  Biso   1.000  H
  C204     1.0000 0.98809  0.72913  0.52901  Biso   1.000  C
  H209     1.0000 0.98250  0.73178  0.44472  Biso   1.000  H
  H210     1.0000 0.03109  0.69510  0.46459  Biso   1.000  H
  C205     1.0000 0.92689  0.85071  0.59041  Biso   1.000  C
  H211     1.0000 0.97111  0.87389  0.65520  Biso   1.000  H
  C206     1.0000 0.85071  0.90959  0.57311  Biso   1.000  C
  H212     1.0000 0.84480  0.97111  0.62611  Biso   1.000  H
  C207     1.0000 0.90959  0.07311  0.35071  Biso   1.000  C
  H213     1.0000 0.97111  0.12611  0.34480  Biso   1.000  H
  C208     1.0000 0.85071  0.09041  0.42689  Biso   1.000  C
  H214     1.0000 0.87389  0.15520  0.47111  Biso   1.000  H
  H215     1.0000 0.94472  0.98250  0.23178  Biso   1.000  H
  N45      1.0000 0.96389  0.04876  0.27421  Biso   1.000  N
  H216     1.0000 0.96459  0.03109  0.19510  Biso   1.000  H
  N46      1.0000 0.95124  0.77421  0.53611  Biso   1.000  N
  H217     1.0000 0.96891  0.69510  0.53541  Biso   1.000  H
  H218     1.0000 0.01750  0.73178  0.55528  Biso   1.000  H
  C209     1.0000 0.96140  0.80261  0.57670  Biso   1.000  C
  C210     1.0000 0.88270  0.86532  0.55961  Biso   1.000  C
  C211     1.0000 0.80261  0.92330  0.53860  Biso   1.000  C
  C212     1.0000 0.92330  0.03860  0.30261  Biso   1.000  C
  C213     1.0000 0.86532  0.05961  0.38270  Biso   1.000  C
  C214     1.0000 0.80261  0.07670  0.46140  Biso   1.000  C
  H219     1.0000 0.99090  0.79380  0.59890  Biso   1.000  H
  H220     1.0000 0.87389  0.84480  0.52889  Biso   1.000  H
  N47      1.0000 0.77421  0.96389  0.54876  Biso   1.000  N
  H221     1.0000 0.79380  0.90110  0.50910  Biso   1.000  H
  H222     1.0000 0.90110  0.00910  0.29380  Biso   1.000  H
  H223     1.0000 0.84480  0.02889  0.37389  Biso   1.000  H
  N48      1.0000 0.77421  0.03611  0.45124  Biso   1.000  N
  H224     1.0000 0.79380  0.09890  0.49090  Biso   1.000  H
  C215     1.0000 0.72913  0.97099  0.51191  Biso   1.000  C
  C216     1.0000 0.72913  0.02901  0.48809  Biso   1.000  C
  H225     1.0000 0.69510  0.96459  0.53109  Biso   1.000  H
  H226     1.0000 0.73178  0.94472  0.48250  Biso   1.000  H
  H227     1.0000 0.69510  0.03541  0.46891  Biso   1.000  H
  H228     1.0000 0.73178  0.05528  0.51750  Biso   1.000  H
  C217     1.0000 0.07670  0.53860  0.19739  Biso   1.000  C
  N49      1.0000 0.03611  0.54876  0.22579  Biso   1.000  N
  C218     1.0000 0.09041  0.57311  0.14929  Biso   1.000  C
  H229     1.0000 0.09890  0.50910  0.20620  Biso   1.000  H
  C219     1.0000 0.02901  0.51191  0.27087  Biso   1.000  C
  C220     1.0000 0.05961  0.61730  0.13468  Biso   1.000  C
  C221     1.0000 0.13468  0.55961  0.11730  Biso   1.000  C
  H230     1.0000 0.03541  0.53109  0.30490  Biso   1.000  H
  H231     1.0000 0.05528  0.48250  0.26822  Biso   1.000  H
  C222     1.0000 0.97099  0.48809  0.27087  Biso   1.000  C
  H232     1.0000 0.02889  0.62611  0.15520  Biso   1.000  H
  C223     1.0000 0.07311  0.64929  0.09041  Biso   1.000  C
  C224     1.0000 0.14929  0.59041  0.07311  Biso   1.000  C
  H233     1.0000 0.15520  0.52889  0.12611  Biso   1.000  H
  N50      1.0000 0.96389  0.45124  0.22579  Biso   1.000  N
  H234     1.0000 0.96459  0.46891  0.30490  Biso   1.000  H
  H235     1.0000 0.94472  0.51750  0.26822  Biso   1.000  H
  C225     1.0000 0.03860  0.69739  0.07670  Biso   1.000  C
  C226     1.0000 0.11730  0.63468  0.05961  Biso   1.000  C
  C227     1.0000 0.19739  0.57670  0.03860  Biso   1.000  C
  C228     1.0000 0.92330  0.46140  0.19739  Biso   1.000  C
  N51      1.0000 0.04876  0.72579  0.03611  Biso   1.000  N
  H236     1.0000 0.00910  0.70620  0.09890  Biso   1.000  H
  H237     1.0000 0.12611  0.65520  0.02889  Biso   1.000  H
  N52      1.0000 0.22579  0.53611  0.04876  Biso   1.000  N
  H238     1.0000 0.20620  0.59890  0.00910  Biso   1.000  H
  C229     1.0000 0.90959  0.42689  0.14929  Biso   1.000  C
  H239     1.0000 0.90110  0.49090  0.20620  Biso   1.000  H
  C230     1.0000 0.01191  0.77087  0.02901  Biso   1.000  C
  C231     1.0000 0.27087  0.52901  0.01191  Biso   1.000  C
  C232     1.0000 0.94039  0.38270  0.13468  Biso   1.000  C
  C233     1.0000 0.86532  0.44039  0.11730  Biso   1.000  C
  H240     1.0000 0.03109  0.80490  0.03541  Biso   1.000  H
  C234     1.0000 0.98809  0.77087  0.97099  Biso   1.000  C
  H241     1.0000 0.98250  0.76822  0.05528  Biso   1.000  H
  H242     1.0000 0.30490  0.53541  0.03109  Biso   1.000  H
  C235     1.0000 0.27087  0.47099  0.98809  Biso   1.000  C
  H243     1.0000 0.26822  0.55528  0.98250  Biso   1.000  H
  C236     1.0000 0.92689  0.35071  0.09041  Biso   1.000  C
  H244     1.0000 0.97111  0.37389  0.15520  Biso   1.000  H
  C237     1.0000 0.85071  0.40959  0.07311  Biso   1.000  C
  H245     1.0000 0.84480  0.47111  0.12611  Biso   1.000  H
  N53      1.0000 0.95124  0.72579  0.96389  Biso   1.000  N
  H246     1.0000 0.96891  0.80490  0.96459  Biso   1.000  H
  H247     1.0000 0.01750  0.76822  0.94472  Biso   1.000  H
  H248     1.0000 0.26822  0.44472  0.01750  Biso   1.000  H
  N54      1.0000 0.22579  0.46389  0.95124  Biso   1.000  N
  H249     1.0000 0.30490  0.46459  0.96891  Biso   1.000  H
  C238     1.0000 0.96140  0.30261  0.07670  Biso   1.000  C
  C239     1.0000 0.88270  0.36532  0.05961  Biso   1.000  C
  C240     1.0000 0.80261  0.42330  0.03860  Biso   1.000  C
  C241     1.0000 0.96140  0.69739  0.92330  Biso   1.000  C
  C242     1.0000 0.19739  0.42330  0.96140  Biso   1.000  C
  N55      1.0000 0.95124  0.27421  0.03611  Biso   1.000  N
  H250     1.0000 0.99090  0.29380  0.09890  Biso   1.000  H
  H251     1.0000 0.87389  0.34480  0.02889  Biso   1.000  H
  N56      1.0000 0.77421  0.46389  0.04876  Biso   1.000  N
  H252     1.0000 0.79380  0.40110  0.00910  Biso   1.000  H
  C243     1.0000 0.92689  0.64929  0.90959  Biso   1.000  C
  H253     1.0000 0.99090  0.70620  0.90110  Biso   1.000  H
  C244     1.0000 0.14929  0.40959  0.92689  Biso   1.000  C
  H254     1.0000 0.20620  0.40110  0.99090  Biso   1.000  H
  C245     1.0000 0.98809  0.22913  0.02901  Biso   1.000  C
  C246     1.0000 0.72913  0.47099  0.01191  Biso   1.000  C
  C247     1.0000 0.88270  0.63468  0.94039  Biso   1.000  C
  C248     1.0000 0.94039  0.61730  0.86532  Biso   1.000  C
  C249     1.0000 0.11730  0.36532  0.94039  Biso   1.000  C
  C250     1.0000 0.13468  0.44039  0.88270  Biso   1.000  C
  H255     1.0000 0.01750  0.23178  0.05528  Biso   1.000  H
  H256     1.0000 0.96891  0.19510  0.03541  Biso   1.000  H
  C251     1.0000 0.01191  0.22913  0.97099  Biso   1.000  C
  C252     1.0000 0.72913  0.52901  0.98809  Biso   1.000  C
  H257     1.0000 0.73178  0.44472  0.98250  Biso   1.000  H
  H258     1.0000 0.69510  0.46459  0.03109  Biso   1.000  H
  C253     1.0000 0.85071  0.59041  0.92689  Biso   1.000  C
  H259     1.0000 0.87389  0.65520  0.97111  Biso   1.000  H
  C254     1.0000 0.90959  0.57311  0.85071  Biso   1.000  C
  H260     1.0000 0.97111  0.62611  0.84480  Biso   1.000  H
  C255     1.0000 0.07311  0.35071  0.90959  Biso   1.000  C
  H261     1.0000 0.12611  0.34480  0.97111  Biso   1.000  H
  C256     1.0000 0.09041  0.42689  0.85071  Biso   1.000  C
  H262     1.0000 0.15520  0.47111  0.87389  Biso   1.000  H
  H263     1.0000 0.98250  0.23178  0.94472  Biso   1.000  H
  N57      1.0000 0.04876  0.27421  0.96389  Biso   1.000  N
  H264     1.0000 0.03109  0.19510  0.96459  Biso   1.000  H
  N58      1.0000 0.77421  0.53611  0.95124  Biso   1.000  N
  H265     1.0000 0.69510  0.53541  0.96891  Biso   1.000  H
  H266     1.0000 0.73178  0.55528  0.01750  Biso   1.000  H
  C257     1.0000 0.80261  0.57670  0.96140  Biso   1.000  C
  C258     1.0000 0.86532  0.55961  0.88270  Biso   1.000  C
  C259     1.0000 0.92330  0.53860  0.80261  Biso   1.000  C
  C260     1.0000 0.03860  0.30261  0.92330  Biso   1.000  C
  C261     1.0000 0.05961  0.38270  0.86532  Biso   1.000  C
  C262     1.0000 0.07670  0.46140  0.80261  Biso   1.000  C
  H267     1.0000 0.79380  0.59890  0.99090  Biso   1.000  H
  H268     1.0000 0.84480  0.52889  0.87389  Biso   1.000  H
  N59      1.0000 0.96389  0.54876  0.77421  Biso   1.000  N
  H269     1.0000 0.90110  0.50910  0.79380  Biso   1.000  H
  H270     1.0000 0.00910  0.29380  0.90110  Biso   1.000  H
  H271     1.0000 0.02889  0.37389  0.84480  Biso   1.000  H
  N60      1.0000 0.03611  0.45124  0.77421  Biso   1.000  N
  H272     1.0000 0.09890  0.49090  0.79380  Biso   1.000  H
  C263     1.0000 0.97099  0.51191  0.72913  Biso   1.000  C
  C264     1.0000 0.02901  0.48809  0.72913  Biso   1.000  C
  H273     1.0000 0.96459  0.53109  0.69510  Biso   1.000  H
  H274     1.0000 0.94472  0.48250  0.73178  Biso   1.000  H
  H275     1.0000 0.03541  0.46891  0.69510  Biso   1.000  H
  H276     1.0000 0.05528  0.51750  0.73178  Biso   1.000  H
  C265     1.0000 0.71987  0.24288  0.37748  Biso   1.000  C
  C266     1.0000 0.70710  0.20902  0.42778  Biso   1.000  C
  C267     1.0000 0.78013  0.25712  0.37748  Biso   1.000  C
  H277     1.0000 0.71081  0.22248  0.34480  Biso   1.000  H
  H278     1.0000 0.69829  0.27609  0.37780  Biso   1.000  H
  C268     1.0000 0.72142  0.24088  0.47858  Biso   1.000  C
  H279     1.0000 0.66858  0.19959  0.42819  Biso   1.000  H
  H280     1.0000 0.72791  0.17532  0.42689  Biso   1.000  H
  C269     1.0000 0.79290  0.29098  0.42778  Biso   1.000  C
  H281     1.0000 0.78919  0.27752  0.34480  Biso   1.000  H
  H282     1.0000 0.80171  0.22391  0.37780  Biso   1.000  H
  N61      1.0000 0.71240  0.20510  0.52521  Biso   1.000  N
  C270     1.0000 0.77858  0.25912  0.47858  Biso   1.000  C
  H283     1.0000 0.69731  0.27279  0.48140  Biso   1.000  H
  H284     1.0000 0.83142  0.30041  0.42819  Biso   1.000  H
  H285     1.0000 0.77209  0.32468  0.42689  Biso   1.000  H
  C271     1.0000 0.67421  0.21359  0.55618  Biso   1.000  C
  N62      1.0000 0.78760  0.29490  0.52521  Biso   1.000  N
  H286     1.0000 0.80269  0.22721  0.48140  Biso   1.000  H
  C272     1.0000 0.66002  0.18119  0.60339  Biso   1.000  C
  H287     1.0000 0.65218  0.24361  0.54880  Biso   1.000  H
  C273     1.0000 0.82579  0.28641  0.55618  Biso   1.000  C
  C274     1.0000 0.69270  0.13672  0.61461  Biso   1.000  C
  C275     1.0000 0.61461  0.19270  0.63672  Biso   1.000  C
  C276     1.0000 0.83998  0.31881  0.60339  Biso   1.000  C
  H288     1.0000 0.84782  0.25639  0.54880  Biso   1.000  H
  C277     1.0000 0.68119  0.10339  0.66002  Biso   1.000  C
  H289     1.0000 0.72232  0.12868  0.59221  Biso   1.000  H
  C278     1.0000 0.60339  0.16002  0.68119  Biso   1.000  C
  H290     1.0000 0.59221  0.22232  0.62868  Biso   1.000  H
  C279     1.0000 0.80730  0.36328  0.61461  Biso   1.000  C
  C280     1.0000 0.88539  0.30730  0.63672  Biso   1.000  C
  C281     1.0000 0.71359  0.05618  0.67421  Biso   1.000  C
  C282     1.0000 0.63672  0.11461  0.69270  Biso   1.000  C
  C283     1.0000 0.55618  0.17421  0.71359  Biso   1.000  C
  C284     1.0000 0.81881  0.39661  0.66002  Biso   1.000  C
  H291     1.0000 0.77768  0.37132  0.59221  Biso   1.000  H
  C285     1.0000 0.89661  0.33998  0.68119  Biso   1.000  C
  H292     1.0000 0.90779  0.27768  0.62868  Biso   1.000  H
  N63      1.0000 0.70510  0.02521  0.71240  Biso   1.000  N
  H293     1.0000 0.74361  0.04880  0.65218  Biso   1.000  H
  H294     1.0000 0.62868  0.09221  0.72232  Biso   1.000  H
  N64      1.0000 0.52521  0.21240  0.70510  Biso   1.000  N
  H295     1.0000 0.54880  0.15218  0.74361  Biso   1.000  H
  C286     1.0000 0.78641  0.44382  0.67421  Biso   1.000  C
  C287     1.0000 0.86328  0.38539  0.69270  Biso   1.000  C
  C288     1.0000 0.94382  0.32579  0.71359  Biso   1.000  C
  C289     1.0000 0.74088  0.97858  0.72142  Biso   1.000  C
  C290     1.0000 0.47858  0.22142  0.74088  Biso   1.000  C
  N65      1.0000 0.79490  0.47479  0.71240  Biso   1.000  N
  H296     1.0000 0.75639  0.45120  0.65218  Biso   1.000  H
  H297     1.0000 0.87132  0.40779  0.72232  Biso   1.000  H
  N66      1.0000 0.97479  0.28760  0.70510  Biso   1.000  N
  H298     1.0000 0.95120  0.34782  0.74361  Biso   1.000  H
  C291     1.0000 0.75912  0.97858  0.77858  Biso   1.000  C
  C292     1.0000 0.70902  0.92778  0.70710  Biso   1.000  C
  H299     1.0000 0.77279  0.98140  0.69731  Biso   1.000  H
  C293     1.0000 0.47858  0.27858  0.75912  Biso   1.000  C
  C294     1.0000 0.42778  0.20710  0.70902  Biso   1.000  C
  H300     1.0000 0.48140  0.19731  0.77279  Biso   1.000  H
  C295     1.0000 0.75912  0.52142  0.72142  Biso   1.000  C
  C296     1.0000 0.02142  0.27858  0.74088  Biso   1.000  C
  N67      1.0000 0.79490  0.02521  0.78760  Biso   1.000  N
  C297     1.0000 0.79098  0.92778  0.79290  Biso   1.000  C
  H301     1.0000 0.72721  0.98140  0.80269  Biso   1.000  H
  C298     1.0000 0.74288  0.87748  0.71987  Biso   1.000  C
  H302     1.0000 0.69959  0.92819  0.66858  Biso   1.000  H
  H303     1.0000 0.67532  0.92689  0.72791  Biso   1.000  H
  N68      1.0000 0.52521  0.28760  0.79490  Biso   1.000  N
  C299     1.0000 0.42778  0.29290  0.79098  Biso   1.000  C
  H304     1.0000 0.48140  0.30269  0.72721  Biso   1.000  H
  C300     1.0000 0.37748  0.21987  0.74288  Biso   1.000  C
  H305     1.0000 0.42819  0.16858  0.69959  Biso   1.000  H
  H306     1.0000 0.42689  0.22791  0.67532  Biso   1.000  H
  C301     1.0000 0.74088  0.52142  0.77858  Biso   1.000  C
  C302     1.0000 0.79098  0.57222  0.70710  Biso   1.000  C
  H307     1.0000 0.72721  0.51860  0.69731  Biso   1.000  H
  C303     1.0000 0.02142  0.22142  0.75912  Biso   1.000  C
  C304     1.0000 0.07222  0.29290  0.70902  Biso   1.000  C
  H308     1.0000 0.01860  0.30269  0.77279  Biso   1.000  H
  C305     1.0000 0.78641  0.05618  0.82579  Biso   1.000  C
  C306     1.0000 0.75712  0.87748  0.78013  Biso   1.000  C
  H309     1.0000 0.80041  0.92819  0.83142  Biso   1.000  H
  H310     1.0000 0.82468  0.92689  0.77209  Biso   1.000  H
  H311     1.0000 0.72248  0.84480  0.71081  Biso   1.000  H
  H312     1.0000 0.77609  0.87780  0.69829  Biso   1.000  H
  C307     1.0000 0.55618  0.32579  0.78641  Biso   1.000  C
  C308     1.0000 0.37748  0.28013  0.75712  Biso   1.000  C
  H313     1.0000 0.42819  0.33142  0.80041  Biso   1.000  H
  H314     1.0000 0.42689  0.27209  0.82468  Biso   1.000  H
  H315     1.0000 0.34480  0.21081  0.72248  Biso   1.000  H
  H316     1.0000 0.37780  0.19829  0.77609  Biso   1.000  H
  N69      1.0000 0.70510  0.47479  0.78760  Biso   1.000  N
  C309     1.0000 0.70902  0.57222  0.79290  Biso   1.000  C
  H317     1.0000 0.77279  0.51860  0.80269  Biso   1.000  H
  C310     1.0000 0.75712  0.62252  0.71987  Biso   1.000  C
  H318     1.0000 0.80041  0.57181  0.66858  Biso   1.000  H
  H319     1.0000 0.82468  0.57311  0.72791  Biso   1.000  H
  N70      1.0000 0.97479  0.21240  0.79490  Biso   1.000  N
  C311     1.0000 0.07222  0.20710  0.79098  Biso   1.000  C
  H320     1.0000 0.01860  0.19731  0.72721  Biso   1.000  H
  C312     1.0000 0.12252  0.28013  0.74288  Biso   1.000  C
  H321     1.0000 0.07181  0.33142  0.69959  Biso   1.000  H
  H322     1.0000 0.07311  0.27209  0.67532  Biso   1.000  H
  C313     1.0000 0.81881  0.10339  0.83998  Biso   1.000  C
  H323     1.0000 0.75639  0.04880  0.84782  Biso   1.000  H
  H324     1.0000 0.77752  0.84480  0.78919  Biso   1.000  H
  H325     1.0000 0.72391  0.87780  0.80171  Biso   1.000  H
  C314     1.0000 0.60339  0.33998  0.81881  Biso   1.000  C
  H326     1.0000 0.54880  0.34782  0.75639  Biso   1.000  H
  H327     1.0000 0.34480  0.28919  0.77752  Biso   1.000  H
  H328     1.0000 0.37780  0.30171  0.72391  Biso   1.000  H
  C315     1.0000 0.71359  0.44382  0.82579  Biso   1.000  C
  C316     1.0000 0.74288  0.62252  0.78013  Biso   1.000  C
  H329     1.0000 0.69959  0.57181  0.83142  Biso   1.000  H
  H330     1.0000 0.67532  0.57311  0.77209  Biso   1.000  H
  H331     1.0000 0.77752  0.65520  0.71081  Biso   1.000  H
  H332     1.0000 0.72391  0.62220  0.69829  Biso   1.000  H
  C317     1.0000 0.94382  0.17421  0.78641  Biso   1.000  C
  C318     1.0000 0.12252  0.21987  0.75712  Biso   1.000  C
  H333     1.0000 0.07181  0.16858  0.80041  Biso   1.000  H
  H334     1.0000 0.07311  0.22791  0.82468  Biso   1.000  H
  H335     1.0000 0.15520  0.28919  0.72248  Biso   1.000  H
  H336     1.0000 0.12220  0.30171  0.77609  Biso   1.000  H
  C319     1.0000 0.86328  0.11461  0.80730  Biso   1.000  C
  C320     1.0000 0.80730  0.13672  0.88539  Biso   1.000  C
  C321     1.0000 0.61461  0.30730  0.86328  Biso   1.000  C
  C322     1.0000 0.63672  0.38539  0.80730  Biso   1.000  C
  C323     1.0000 0.68119  0.39661  0.83998  Biso   1.000  C
  H337     1.0000 0.74361  0.45120  0.84782  Biso   1.000  H
  H338     1.0000 0.72248  0.65520  0.78919  Biso   1.000  H
  H339     1.0000 0.77609  0.62220  0.80171  Biso   1.000  H
  C324     1.0000 0.89661  0.16002  0.81881  Biso   1.000  C
  H340     1.0000 0.95120  0.15218  0.75639  Biso   1.000  H
  H341     1.0000 0.15520  0.21081  0.77752  Biso   1.000  H
  H342     1.0000 0.12220  0.19829  0.72391  Biso   1.000  H
  H343     1.0000 0.87132  0.09221  0.77768  Biso   1.000  H
  C325     1.0000 0.83998  0.18119  0.89661  Biso   1.000  C
  H344     1.0000 0.77768  0.12868  0.90779  Biso   1.000  H
  C326     1.0000 0.66002  0.31881  0.89661  Biso   1.000  C
  H345     1.0000 0.59221  0.27768  0.87132  Biso   1.000  H
  H346     1.0000 0.62868  0.40779  0.77768  Biso   1.000  H
  C327     1.0000 0.69270  0.36328  0.88539  Biso   1.000  C
  C328     1.0000 0.88539  0.19270  0.86328  Biso   1.000  C
  C329     1.0000 0.82579  0.21359  0.94382  Biso   1.000  C
  C330     1.0000 0.67421  0.28641  0.94382  Biso   1.000  C
  H347     1.0000 0.72232  0.37132  0.90779  Biso   1.000  H
  H348     1.0000 0.90779  0.22232  0.87132  Biso   1.000  H
  N71      1.0000 0.78760  0.20510  0.97479  Biso   1.000  N
  H349     1.0000 0.84782  0.24361  0.95120  Biso   1.000  H
  N72      1.0000 0.71240  0.29490  0.97479  Biso   1.000  N
  H350     1.0000 0.65218  0.25639  0.95120  Biso   1.000  H
  C331     1.0000 0.77858  0.24088  0.02142  Biso   1.000  C
  C332     1.0000 0.72142  0.25912  0.02142  Biso   1.000  C
  C333     1.0000 0.79290  0.20902  0.07222  Biso   1.000  C
  H351     1.0000 0.80269  0.27279  0.01860  Biso   1.000  H
  C334     1.0000 0.70710  0.29098  0.07222  Biso   1.000  C
  H352     1.0000 0.69731  0.22721  0.01860  Biso   1.000  H
  C335     1.0000 0.78013  0.24288  0.12252  Biso   1.000  C
  H353     1.0000 0.83142  0.19959  0.07181  Biso   1.000  H
  H354     1.0000 0.77209  0.17532  0.07311  Biso   1.000  H
  C336     1.0000 0.71987  0.25712  0.12252  Biso   1.000  C
  H355     1.0000 0.66858  0.30041  0.07181  Biso   1.000  H
  H356     1.0000 0.72791  0.32468  0.07311  Biso   1.000  H
  H357     1.0000 0.78919  0.22248  0.15520  Biso   1.000  H
  H358     1.0000 0.80171  0.27609  0.12220  Biso   1.000  H
  H359     1.0000 0.71081  0.27752  0.15520  Biso   1.000  H
  H360     1.0000 0.69829  0.22391  0.12220  Biso   1.000  H
  C337     1.0000 0.37748  0.71987  0.24288  Biso   1.000  C
  C338     1.0000 0.42778  0.70710  0.20902  Biso   1.000  C
  C339     1.0000 0.37748  0.78013  0.25712  Biso   1.000  C
  H361     1.0000 0.34480  0.71081  0.22248  Biso   1.000  H
  H362     1.0000 0.37780  0.69829  0.27609  Biso   1.000  H
  C340     1.0000 0.47858  0.72142  0.24088  Biso   1.000  C
  H363     1.0000 0.42819  0.66858  0.19959  Biso   1.000  H
  H364     1.0000 0.42689  0.72791  0.17532  Biso   1.000  H
  C341     1.0000 0.42778  0.79290  0.29098  Biso   1.000  C
  H365     1.0000 0.34480  0.78919  0.27752  Biso   1.000  H
  H366     1.0000 0.37780  0.80171  0.22391  Biso   1.000  H
  N73      1.0000 0.52521  0.71240  0.20510  Biso   1.000  N
  C342     1.0000 0.47858  0.77858  0.25912  Biso   1.000  C
  H367     1.0000 0.48140  0.69731  0.27279  Biso   1.000  H
  H368     1.0000 0.42819  0.83142  0.30041  Biso   1.000  H
  H369     1.0000 0.42689  0.77209  0.32468  Biso   1.000  H
  C343     1.0000 0.55618  0.67421  0.21359  Biso   1.000  C
  N74      1.0000 0.52521  0.78760  0.29490  Biso   1.000  N
  H370     1.0000 0.48140  0.80269  0.22721  Biso   1.000  H
  C344     1.0000 0.60339  0.66002  0.18119  Biso   1.000  C
  H371     1.0000 0.54880  0.65218  0.24361  Biso   1.000  H
  C345     1.0000 0.55618  0.82579  0.28641  Biso   1.000  C
  C346     1.0000 0.61461  0.69270  0.13672  Biso   1.000  C
  C347     1.0000 0.63672  0.61461  0.19270  Biso   1.000  C
  C348     1.0000 0.60339  0.83998  0.31881  Biso   1.000  C
  H372     1.0000 0.54880  0.84782  0.25639  Biso   1.000  H
  C349     1.0000 0.66002  0.68119  0.10339  Biso   1.000  C
  H373     1.0000 0.59221  0.72232  0.12868  Biso   1.000  H
  C350     1.0000 0.68119  0.60339  0.16002  Biso   1.000  C
  H374     1.0000 0.62868  0.59221  0.22232  Biso   1.000  H
  C351     1.0000 0.61461  0.80730  0.36328  Biso   1.000  C
  C352     1.0000 0.63672  0.88539  0.30730  Biso   1.000  C
  C353     1.0000 0.67421  0.71359  0.05618  Biso   1.000  C
  C354     1.0000 0.69270  0.63672  0.11461  Biso   1.000  C
  C355     1.0000 0.71359  0.55618  0.17421  Biso   1.000  C
  C356     1.0000 0.66002  0.81881  0.39661  Biso   1.000  C
  H375     1.0000 0.59221  0.77768  0.37132  Biso   1.000  H
  C357     1.0000 0.68119  0.89661  0.33998  Biso   1.000  C
  H376     1.0000 0.62868  0.90779  0.27768  Biso   1.000  H
  N75      1.0000 0.71240  0.70510  0.02521  Biso   1.000  N
  H377     1.0000 0.65218  0.74361  0.04880  Biso   1.000  H
  H378     1.0000 0.72232  0.62868  0.09221  Biso   1.000  H
  N76      1.0000 0.70510  0.52521  0.21240  Biso   1.000  N
  H379     1.0000 0.74361  0.54880  0.15218  Biso   1.000  H
  C358     1.0000 0.67421  0.78641  0.44382  Biso   1.000  C
  C359     1.0000 0.69270  0.86328  0.38539  Biso   1.000  C
  C360     1.0000 0.71359  0.94382  0.32579  Biso   1.000  C
  C361     1.0000 0.72142  0.74088  0.97858  Biso   1.000  C
  C362     1.0000 0.74088  0.47858  0.22142  Biso   1.000  C
  N77      1.0000 0.71240  0.79490  0.47479  Biso   1.000  N
  H380     1.0000 0.65218  0.75639  0.45120  Biso   1.000  H
  H381     1.0000 0.72232  0.87132  0.40779  Biso   1.000  H
  N78      1.0000 0.70510  0.97479  0.28760  Biso   1.000  N
  H382     1.0000 0.74361  0.95120  0.34782  Biso   1.000  H
  C363     1.0000 0.77858  0.75912  0.97858  Biso   1.000  C
  C364     1.0000 0.70710  0.70902  0.92778  Biso   1.000  C
  H383     1.0000 0.69731  0.77279  0.98140  Biso   1.000  H
  C365     1.0000 0.75912  0.47858  0.27858  Biso   1.000  C
  C366     1.0000 0.70902  0.42778  0.20710  Biso   1.000  C
  H384     1.0000 0.77279  0.48140  0.19731  Biso   1.000  H
  C367     1.0000 0.72142  0.75912  0.52142  Biso   1.000  C
  C368     1.0000 0.74088  0.02142  0.27858  Biso   1.000  C
  N79      1.0000 0.78760  0.79490  0.02521  Biso   1.000  N
  C369     1.0000 0.79290  0.79098  0.92778  Biso   1.000  C
  H385     1.0000 0.80269  0.72721  0.98140  Biso   1.000  H
  C370     1.0000 0.71987  0.74288  0.87748  Biso   1.000  C
  H386     1.0000 0.66858  0.69959  0.92819  Biso   1.000  H
  H387     1.0000 0.72791  0.67532  0.92689  Biso   1.000  H
  N80      1.0000 0.79490  0.52521  0.28760  Biso   1.000  N
  C371     1.0000 0.79098  0.42778  0.29290  Biso   1.000  C
  H388     1.0000 0.72721  0.48140  0.30269  Biso   1.000  H
  C372     1.0000 0.74288  0.37748  0.21987  Biso   1.000  C
  H389     1.0000 0.69959  0.42819  0.16858  Biso   1.000  H
  H390     1.0000 0.67532  0.42689  0.22791  Biso   1.000  H
  C373     1.0000 0.77858  0.74088  0.52142  Biso   1.000  C
  C374     1.0000 0.70710  0.79098  0.57222  Biso   1.000  C
  H391     1.0000 0.69731  0.72721  0.51860  Biso   1.000  H
  C375     1.0000 0.75912  0.02142  0.22142  Biso   1.000  C
  C376     1.0000 0.70902  0.07222  0.29290  Biso   1.000  C
  H392     1.0000 0.77279  0.01860  0.30269  Biso   1.000  H
  C377     1.0000 0.82579  0.78641  0.05618  Biso   1.000  C
  C378     1.0000 0.78013  0.75712  0.87748  Biso   1.000  C
  H393     1.0000 0.83142  0.80041  0.92819  Biso   1.000  H
  H394     1.0000 0.77209  0.82468  0.92689  Biso   1.000  H
  H395     1.0000 0.71081  0.72248  0.84480  Biso   1.000  H
  H396     1.0000 0.69829  0.77609  0.87780  Biso   1.000  H
  C379     1.0000 0.78641  0.55618  0.32579  Biso   1.000  C
  C380     1.0000 0.75712  0.37748  0.28013  Biso   1.000  C
  H397     1.0000 0.80041  0.42819  0.33142  Biso   1.000  H
  H398     1.0000 0.82468  0.42689  0.27209  Biso   1.000  H
  H399     1.0000 0.72248  0.34480  0.21081  Biso   1.000  H
  H400     1.0000 0.77609  0.37780  0.19829  Biso   1.000  H
  N81      1.0000 0.78760  0.70510  0.47479  Biso   1.000  N
  C381     1.0000 0.79290  0.70902  0.57222  Biso   1.000  C
  H401     1.0000 0.80269  0.77279  0.51860  Biso   1.000  H
  C382     1.0000 0.71987  0.75712  0.62252  Biso   1.000  C
  H402     1.0000 0.66858  0.80041  0.57181  Biso   1.000  H
  H403     1.0000 0.72791  0.82468  0.57311  Biso   1.000  H
  N82      1.0000 0.79490  0.97479  0.21240  Biso   1.000  N
  C383     1.0000 0.79098  0.07222  0.20710  Biso   1.000  C
  H404     1.0000 0.72721  0.01860  0.19731  Biso   1.000  H
  C384     1.0000 0.74288  0.12252  0.28013  Biso   1.000  C
  H405     1.0000 0.69959  0.07181  0.33142  Biso   1.000  H
  H406     1.0000 0.67532  0.07311  0.27209  Biso   1.000  H
  C385     1.0000 0.83998  0.81881  0.10339  Biso   1.000  C
  H407     1.0000 0.84782  0.75639  0.04880  Biso   1.000  H
  H408     1.0000 0.78919  0.77752  0.84480  Biso   1.000  H
  H409     1.0000 0.80171  0.72391  0.87780  Biso   1.000  H
  C386     1.0000 0.81881  0.60339  0.33998  Biso   1.000  C
  H410     1.0000 0.75639  0.54880  0.34782  Biso   1.000  H
  H411     1.0000 0.77752  0.34480  0.28919  Biso   1.000  H
  H412     1.0000 0.72391  0.37780  0.30171  Biso   1.000  H
  C387     1.0000 0.82579  0.71359  0.44382  Biso   1.000  C
  C388     1.0000 0.78013  0.74288  0.62252  Biso   1.000  C
  H413     1.0000 0.83142  0.69959  0.57181  Biso   1.000  H
  H414     1.0000 0.77209  0.67532  0.57311  Biso   1.000  H
  H415     1.0000 0.71081  0.77752  0.65520  Biso   1.000  H
  H416     1.0000 0.69829  0.72391  0.62220  Biso   1.000  H
  C389     1.0000 0.78641  0.94382  0.17421  Biso   1.000  C
  C390     1.0000 0.75712  0.12252  0.21987  Biso   1.000  C
  H417     1.0000 0.80041  0.07181  0.16858  Biso   1.000  H
  H418     1.0000 0.82468  0.07311  0.22791  Biso   1.000  H
  H419     1.0000 0.72248  0.15520  0.28919  Biso   1.000  H
  H420     1.0000 0.77609  0.12220  0.30171  Biso   1.000  H
  C391     1.0000 0.80730  0.86328  0.11461  Biso   1.000  C
  C392     1.0000 0.88539  0.80730  0.13672  Biso   1.000  C
  C393     1.0000 0.86328  0.61461  0.30730  Biso   1.000  C
  C394     1.0000 0.80730  0.63672  0.38539  Biso   1.000  C
  C395     1.0000 0.83998  0.68119  0.39661  Biso   1.000  C
  H421     1.0000 0.84782  0.74361  0.45120  Biso   1.000  H
  H422     1.0000 0.78919  0.72248  0.65520  Biso   1.000  H
  H423     1.0000 0.80171  0.77609  0.62220  Biso   1.000  H
  C396     1.0000 0.81881  0.89661  0.16002  Biso   1.000  C
  H424     1.0000 0.75639  0.95120  0.15218  Biso   1.000  H
  H425     1.0000 0.77752  0.15520  0.21081  Biso   1.000  H
  H426     1.0000 0.72391  0.12220  0.19829  Biso   1.000  H
  H427     1.0000 0.77768  0.87132  0.09221  Biso   1.000  H
  C397     1.0000 0.89661  0.83998  0.18119  Biso   1.000  C
  H428     1.0000 0.90779  0.77768  0.12868  Biso   1.000  H
  C398     1.0000 0.89661  0.66002  0.31881  Biso   1.000  C
  H429     1.0000 0.87132  0.59221  0.27768  Biso   1.000  H
  H430     1.0000 0.77768  0.62868  0.40779  Biso   1.000  H
  C399     1.0000 0.88539  0.69270  0.36328  Biso   1.000  C
  C400     1.0000 0.86328  0.88539  0.19270  Biso   1.000  C
  C401     1.0000 0.94382  0.82579  0.21359  Biso   1.000  C
  C402     1.0000 0.94382  0.67421  0.28641  Biso   1.000  C
  H431     1.0000 0.90779  0.72232  0.37132  Biso   1.000  H
  H432     1.0000 0.87132  0.90779  0.22232  Biso   1.000  H
  N83      1.0000 0.97479  0.78760  0.20510  Biso   1.000  N
  H433     1.0000 0.95120  0.84782  0.24361  Biso   1.000  H
  N84      1.0000 0.97479  0.71240  0.29490  Biso   1.000  N
  H434     1.0000 0.95120  0.65218  0.25639  Biso   1.000  H
  C403     1.0000 0.02142  0.77858  0.24088  Biso   1.000  C
  C404     1.0000 0.02142  0.72142  0.25912  Biso   1.000  C
  C405     1.0000 0.07222  0.79290  0.20902  Biso   1.000  C
  H435     1.0000 0.01860  0.80269  0.27279  Biso   1.000  H
  C406     1.0000 0.07222  0.70710  0.29098  Biso   1.000  C
  H436     1.0000 0.01860  0.69731  0.22721  Biso   1.000  H
  C407     1.0000 0.12252  0.78013  0.24288  Biso   1.000  C
  H437     1.0000 0.07181  0.83142  0.19959  Biso   1.000  H
  H438     1.0000 0.07311  0.77209  0.17532  Biso   1.000  H
  C408     1.0000 0.12252  0.71987  0.25712  Biso   1.000  C
  H439     1.0000 0.07181  0.66858  0.30041  Biso   1.000  H
  H440     1.0000 0.07311  0.72791  0.32468  Biso   1.000  H
  H441     1.0000 0.15520  0.78919  0.22248  Biso   1.000  H
  H442     1.0000 0.12220  0.80171  0.27609  Biso   1.000  H
  H443     1.0000 0.15520  0.71081  0.27752  Biso   1.000  H
  H444     1.0000 0.12220  0.69829  0.22391  Biso   1.000  H
  C409     1.0000 0.24288  0.37748  0.71987  Biso   1.000  C
  C410     1.0000 0.20902  0.42778  0.70710  Biso   1.000  C
  C411     1.0000 0.25712  0.37748  0.78013  Biso   1.000  C
  H445     1.0000 0.22248  0.34480  0.71081  Biso   1.000  H
  H446     1.0000 0.27609  0.37780  0.69829  Biso   1.000  H
  C412     1.0000 0.24088  0.47858  0.72142  Biso   1.000  C
  H447     1.0000 0.19959  0.42819  0.66858  Biso   1.000  H
  H448     1.0000 0.17532  0.42689  0.72791  Biso   1.000  H
  C413     1.0000 0.29098  0.42778  0.79290  Biso   1.000  C
  H449     1.0000 0.27752  0.34480  0.78919  Biso   1.000  H
  H450     1.0000 0.22391  0.37780  0.80171  Biso   1.000  H
  N85      1.0000 0.20510  0.52521  0.71240  Biso   1.000  N
  C414     1.0000 0.25912  0.47858  0.77858  Biso   1.000  C
  H451     1.0000 0.27279  0.48140  0.69731  Biso   1.000  H
  H452     1.0000 0.30041  0.42819  0.83142  Biso   1.000  H
  H453     1.0000 0.32468  0.42689  0.77209  Biso   1.000  H
  C415     1.0000 0.21359  0.55618  0.67421  Biso   1.000  C
  N86      1.0000 0.29490  0.52521  0.78760  Biso   1.000  N
  H454     1.0000 0.22721  0.48140  0.80269  Biso   1.000  H
  C416     1.0000 0.18119  0.60339  0.66002  Biso   1.000  C
  H455     1.0000 0.24361  0.54880  0.65218  Biso   1.000  H
  C417     1.0000 0.28641  0.55618  0.82579  Biso   1.000  C
  C418     1.0000 0.13672  0.61461  0.69270  Biso   1.000  C
  C419     1.0000 0.19270  0.63672  0.61461  Biso   1.000  C
  C420     1.0000 0.31881  0.60339  0.83998  Biso   1.000  C
  H456     1.0000 0.25639  0.54880  0.84782  Biso   1.000  H
  C421     1.0000 0.10339  0.66002  0.68119  Biso   1.000  C
  H457     1.0000 0.12868  0.59221  0.72232  Biso   1.000  H
  C422     1.0000 0.16002  0.68119  0.60339  Biso   1.000  C
  H458     1.0000 0.22232  0.62868  0.59221  Biso   1.000  H
  C423     1.0000 0.30730  0.63672  0.88539  Biso   1.000  C
  C424     1.0000 0.36328  0.61461  0.80730  Biso   1.000  C
  C425     1.0000 0.05618  0.67421  0.71359  Biso   1.000  C
  C426     1.0000 0.11461  0.69270  0.63672  Biso   1.000  C
  C427     1.0000 0.17421  0.71359  0.55618  Biso   1.000  C
  C428     1.0000 0.33998  0.68119  0.89661  Biso   1.000  C
  H459     1.0000 0.27768  0.62868  0.90779  Biso   1.000  H
  C429     1.0000 0.39661  0.66002  0.81881  Biso   1.000  C
  H460     1.0000 0.37132  0.59221  0.77768  Biso   1.000  H
  N87      1.0000 0.02521  0.71240  0.70510  Biso   1.000  N
  H461     1.0000 0.04880  0.65218  0.74361  Biso   1.000  H
  H462     1.0000 0.09221  0.72232  0.62868  Biso   1.000  H
  N88      1.0000 0.21240  0.70510  0.52521  Biso   1.000  N
  H463     1.0000 0.15218  0.74361  0.54880  Biso   1.000  H
  C430     1.0000 0.32579  0.71359  0.94382  Biso   1.000  C
  C431     1.0000 0.38539  0.69270  0.86328  Biso   1.000  C
  C432     1.0000 0.44382  0.67421  0.78641  Biso   1.000  C
  C433     1.0000 0.97858  0.72142  0.74088  Biso   1.000  C
  C434     1.0000 0.22142  0.74088  0.47858  Biso   1.000  C
  N89      1.0000 0.28760  0.70510  0.97479  Biso   1.000  N
  H464     1.0000 0.34782  0.74361  0.95120  Biso   1.000  H
  H465     1.0000 0.40779  0.72232  0.87132  Biso   1.000  H
  N90      1.0000 0.47479  0.71240  0.79490  Biso   1.000  N
  H466     1.0000 0.45120  0.65218  0.75639  Biso   1.000  H
  C435     1.0000 0.97858  0.77858  0.75912  Biso   1.000  C
  C436     1.0000 0.92778  0.70710  0.70902  Biso   1.000  C
  H467     1.0000 0.98140  0.69731  0.77279  Biso   1.000  H
  C437     1.0000 0.27858  0.75912  0.47858  Biso   1.000  C
  C438     1.0000 0.20710  0.70902  0.42778  Biso   1.000  C
  H468     1.0000 0.19731  0.77279  0.48140  Biso   1.000  H
  C439     1.0000 0.27858  0.74088  0.02142  Biso   1.000  C
  C440     1.0000 0.52142  0.72142  0.75912  Biso   1.000  C
  N91      1.0000 0.02521  0.78760  0.79490  Biso   1.000  N
  C441     1.0000 0.92778  0.79290  0.79098  Biso   1.000  C
  H469     1.0000 0.98140  0.80269  0.72721  Biso   1.000  H
  C442     1.0000 0.87748  0.71987  0.74288  Biso   1.000  C
  H470     1.0000 0.92819  0.66858  0.69959  Biso   1.000  H
  H471     1.0000 0.92689  0.72791  0.67532  Biso   1.000  H
  N92      1.0000 0.28760  0.79490  0.52521  Biso   1.000  N
  C443     1.0000 0.29290  0.79098  0.42778  Biso   1.000  C
  H472     1.0000 0.30269  0.72721  0.48140  Biso   1.000  H
  C444     1.0000 0.21987  0.74288  0.37748  Biso   1.000  C
  H473     1.0000 0.16858  0.69959  0.42819  Biso   1.000  H
  H474     1.0000 0.22791  0.67532  0.42689  Biso   1.000  H
  C445     1.0000 0.22142  0.75912  0.02142  Biso   1.000  C
  C446     1.0000 0.29290  0.70902  0.07222  Biso   1.000  C
  H475     1.0000 0.30269  0.77279  0.01860  Biso   1.000  H
  C447     1.0000 0.52142  0.77858  0.74088  Biso   1.000  C
  C448     1.0000 0.57222  0.70710  0.79098  Biso   1.000  C
  H476     1.0000 0.51860  0.69731  0.72721  Biso   1.000  H
  C449     1.0000 0.05618  0.82579  0.78641  Biso   1.000  C
  C450     1.0000 0.87748  0.78013  0.75712  Biso   1.000  C
  H477     1.0000 0.92819  0.83142  0.80041  Biso   1.000  H
  H478     1.0000 0.92689  0.77209  0.82468  Biso   1.000  H
  H479     1.0000 0.84480  0.71081  0.72248  Biso   1.000  H
  H480     1.0000 0.87780  0.69829  0.77609  Biso   1.000  H
  C451     1.0000 0.32579  0.78641  0.55618  Biso   1.000  C
  C452     1.0000 0.28013  0.75712  0.37748  Biso   1.000  C
  H481     1.0000 0.33142  0.80041  0.42819  Biso   1.000  H
  H482     1.0000 0.27209  0.82468  0.42689  Biso   1.000  H
  H483     1.0000 0.21081  0.72248  0.34480  Biso   1.000  H
  H484     1.0000 0.19829  0.77609  0.37780  Biso   1.000  H
  N93      1.0000 0.21240  0.79490  0.97479  Biso   1.000  N
  C453     1.0000 0.20710  0.79098  0.07222  Biso   1.000  C
  H485     1.0000 0.19731  0.72721  0.01860  Biso   1.000  H
  C454     1.0000 0.28013  0.74288  0.12252  Biso   1.000  C
  H486     1.0000 0.33142  0.69959  0.07181  Biso   1.000  H
  H487     1.0000 0.27209  0.67532  0.07311  Biso   1.000  H
  N94      1.0000 0.47479  0.78760  0.70510  Biso   1.000  N
  C455     1.0000 0.57222  0.79290  0.70902  Biso   1.000  C
  H488     1.0000 0.51860  0.80269  0.77279  Biso   1.000  H
  C456     1.0000 0.62252  0.71987  0.75712  Biso   1.000  C
  H489     1.0000 0.57181  0.66858  0.80041  Biso   1.000  H
  H490     1.0000 0.57311  0.72791  0.82468  Biso   1.000  H
  C457     1.0000 0.10339  0.83998  0.81881  Biso   1.000  C
  H491     1.0000 0.04880  0.84782  0.75639  Biso   1.000  H
  H492     1.0000 0.84480  0.78919  0.77752  Biso   1.000  H
  H493     1.0000 0.87780  0.80171  0.72391  Biso   1.000  H
  C458     1.0000 0.33998  0.81881  0.60339  Biso   1.000  C
  H494     1.0000 0.34782  0.75639  0.54880  Biso   1.000  H
  H495     1.0000 0.28919  0.77752  0.34480  Biso   1.000  H
  H496     1.0000 0.30171  0.72391  0.37780  Biso   1.000  H
  C459     1.0000 0.17421  0.78641  0.94382  Biso   1.000  C
  C460     1.0000 0.21987  0.75712  0.12252  Biso   1.000  C
  H497     1.0000 0.16858  0.80041  0.07181  Biso   1.000  H
  H498     1.0000 0.22791  0.82468  0.07311  Biso   1.000  H
  H499     1.0000 0.28919  0.72248  0.15520  Biso   1.000  H
  H500     1.0000 0.30171  0.77609  0.12220  Biso   1.000  H
  C461     1.0000 0.44382  0.82579  0.71359  Biso   1.000  C
  C462     1.0000 0.62252  0.78013  0.74288  Biso   1.000  C
  H501     1.0000 0.57181  0.83142  0.69959  Biso   1.000  H
  H502     1.0000 0.57311  0.77209  0.67532  Biso   1.000  H
  H503     1.0000 0.65520  0.71081  0.77752  Biso   1.000  H
  H504     1.0000 0.62220  0.69829  0.72391  Biso   1.000  H
  C463     1.0000 0.13672  0.88539  0.80730  Biso   1.000  C
  C464     1.0000 0.11461  0.80730  0.86328  Biso   1.000  C
  C465     1.0000 0.30730  0.86328  0.61461  Biso   1.000  C
  C466     1.0000 0.38539  0.80730  0.63672  Biso   1.000  C
  C467     1.0000 0.16002  0.81881  0.89661  Biso   1.000  C
  H505     1.0000 0.15218  0.75639  0.95120  Biso   1.000  H
  H506     1.0000 0.21081  0.77752  0.15520  Biso   1.000  H
  H507     1.0000 0.19829  0.72391  0.12220  Biso   1.000  H
  C468     1.0000 0.39661  0.83998  0.68119  Biso   1.000  C
  H508     1.0000 0.45120  0.84782  0.74361  Biso   1.000  H
  H509     1.0000 0.65520  0.78919  0.72248  Biso   1.000  H
  H510     1.0000 0.62220  0.80171  0.77609  Biso   1.000  H
  H511     1.0000 0.12868  0.90779  0.77768  Biso   1.000  H
  C469     1.0000 0.18119  0.89661  0.83998  Biso   1.000  C
  H512     1.0000 0.09221  0.77768  0.87132  Biso   1.000  H
  C470     1.0000 0.31881  0.89661  0.66002  Biso   1.000  C
  H513     1.0000 0.27768  0.87132  0.59221  Biso   1.000  H
  H514     1.0000 0.40779  0.77768  0.62868  Biso   1.000  H
  C471     1.0000 0.19270  0.86328  0.88539  Biso   1.000  C
  C472     1.0000 0.36328  0.88539  0.69270  Biso   1.000  C
  C473     1.0000 0.21359  0.94382  0.82579  Biso   1.000  C
  C474     1.0000 0.28641  0.94382  0.67421  Biso   1.000  C
  H515     1.0000 0.22232  0.87132  0.90779  Biso   1.000  H
  H516     1.0000 0.37132  0.90779  0.72232  Biso   1.000  H
  N95      1.0000 0.20510  0.97479  0.78760  Biso   1.000  N
  H517     1.0000 0.24361  0.95120  0.84782  Biso   1.000  H
  N96      1.0000 0.29490  0.97479  0.71240  Biso   1.000  N
  H518     1.0000 0.25639  0.95120  0.65218  Biso   1.000  H
  C475     1.0000 0.24088  0.02142  0.77858  Biso   1.000  C
  C476     1.0000 0.25912  0.02142  0.72142  Biso   1.000  C
  C477     1.0000 0.20902  0.07222  0.79290  Biso   1.000  C
  H519     1.0000 0.27279  0.01860  0.80269  Biso   1.000  H
  C478     1.0000 0.29098  0.07222  0.70710  Biso   1.000  C
  H520     1.0000 0.22721  0.01860  0.69731  Biso   1.000  H
  C479     1.0000 0.24288  0.12252  0.78013  Biso   1.000  C
  H521     1.0000 0.19959  0.07181  0.83142  Biso   1.000  H
  H522     1.0000 0.17532  0.07311  0.77209  Biso   1.000  H
  C480     1.0000 0.25712  0.12252  0.71987  Biso   1.000  C
  H523     1.0000 0.30041  0.07181  0.66858  Biso   1.000  H
  H524     1.0000 0.32468  0.07311  0.72791  Biso   1.000  H
  H525     1.0000 0.22248  0.15520  0.78919  Biso   1.000  H
  H526     1.0000 0.27609  0.12220  0.80171  Biso   1.000  H
  H527     1.0000 0.27752  0.15520  0.71081  Biso   1.000  H
  H528     1.0000 0.22391  0.12220  0.69829  Biso   1.000  H
