data_image0
_cell_length_a       13.542
_cell_length_b       13.542
_cell_length_c       118.223
_cell_angle_alpha    90
_cell_angle_beta     90
_cell_angle_gamma    120

_symmetry_space_group_name_H-M    "P 1"
_symmetry_int_tables_number       1

loop_
  _symmetry_equiv_pos_as_xyz
  'x, y, z'

loop_
  _atom_site_label
  _atom_site_occupancy
  _atom_site_fract_x
  _atom_site_fract_y
  _atom_site_fract_z
  _atom_site_thermal_displace_type
  _atom_site_B_iso_or_equiv
  _atom_site_type_symbol
  C1       1.0000 0.44123  0.46701  0.46251  Biso   1.000  C
  C2       1.0000 0.44278  0.36716  0.46211  Biso   1.000  C
  C3       1.0000 0.33828  0.46403  0.46292  Biso   1.000  C
  H1       1.0000 0.50909  0.53642  0.46250  Biso   1.000  H
  N1       1.0000 0.34831  0.26552  0.46205  Biso   1.000  N
  H2       1.0000 0.51288  0.37032  0.46190  Biso   1.000  H
  C4       1.0000 0.23968  0.35855  0.46294  Biso   1.000  C
  C5       1.0000 0.33472  0.57138  0.46314  Biso   1.000  C
  B1       1.0000 0.35830  0.14785  0.46019  Biso   1.000  B
  C6       1.0000 0.24807  0.26220  0.46253  Biso   1.000  C
  H3       1.0000 0.16858  0.35327  0.46320  Biso   1.000  H
  N2       1.0000 0.23342  0.56490  0.46315  Biso   1.000  N
  N3       1.0000 0.43512  0.66850  0.46315  Biso   1.000  N
  C7       1.0000 0.35170  0.12918  0.44697  Biso   1.000  C
  O1       1.0000 0.46740  0.17642  0.46556  Biso   1.000  O
  O2       1.0000 0.26859  0.05866  0.46713  Biso   1.000  O
  H4       1.0000 0.18157  0.19168  0.46260  Biso   1.000  H
  C8       1.0000 0.23671  0.66526  0.46314  Biso   1.000  C
  C9       1.0000 0.42862  0.76332  0.46314  Biso   1.000  C
  C10      1.0000 0.44531  0.19117  0.44008  Biso   1.000  C
  C11      1.0000 0.24967  0.05730  0.44139  Biso   1.000  C
  C12      1.0000 0.43812  0.13720  0.47635  Biso   1.000  C
  C13      1.0000 0.32054  0.06583  0.47722  Biso   1.000  C
  C14      1.0000 0.12570  0.66168  0.46292  Biso   1.000  C
  N4       1.0000 0.33152  0.76656  0.46315  Biso   1.000  N
  C15      1.0000 0.53600  0.87425  0.46292  Biso   1.000  C
  C16      1.0000 0.43930  0.18580  0.42849  Biso   1.000  C
  H5       1.0000 0.51552  0.23884  0.44350  Biso   1.000  H
  C17      1.0000 0.24226  0.04988  0.42968  Biso   1.000  C
  H6       1.0000 0.18445  0.01296  0.44570  Biso   1.000  H
  C18      1.0000 0.50898  0.16047  0.48544  Biso   1.000  C
  C19      1.0000 0.27178  0.01484  0.48724  Biso   1.000  C
  C20      1.0000 0.11886  0.76025  0.46294  Biso   1.000  C
  C21      1.0000 0.02580  0.55876  0.46251  Biso   1.000  C
  C22      1.0000 0.64139  0.88108  0.46294  Biso   1.000  C
  C23      1.0000 0.53303  0.97419  0.46251  Biso   1.000  C
  C24      1.0000 0.33744  0.11426  0.42286  Biso   1.000  C
  H7       1.0000 0.50480  0.23099  0.42430  Biso   1.000  H
  H8       1.0000 0.17238  0.00094  0.42630  Biso   1.000  H
  C25      1.0000 0.46018  0.11324  0.49573  Biso   1.000  C
  H9       1.0000 0.58762  0.20669  0.48470  Biso   1.000  H
  C26      1.0000 0.34411  0.04016  0.49660  Biso   1.000  C
  H10      1.0000 0.19367  0.96495  0.48780  Biso   1.000  H
  H11      1.0000 0.18470  0.83136  0.46320  Biso   1.000  H
  C27      1.0000 0.01411  0.75189  0.46253  Biso   1.000  C
  H12      1.0000 0.02731  0.49089  0.46250  Biso   1.000  H
  C28      1.0000 0.92446  0.55723  0.46211  Biso   1.000  C
  H13      1.0000 0.64666  0.81525  0.46320  Biso   1.000  H
  C29      1.0000 0.73780  0.98587  0.46253  Biso   1.000  C
  H14      1.0000 0.46358  0.97265  0.46250  Biso   1.000  H
  C30      1.0000 0.63279  0.07566  0.46211  Biso   1.000  C
  C31      1.0000 0.32919  0.11017  0.41047  Biso   1.000  C
  Cl1      1.0000 0.54748  0.14606  0.50751  Biso   1.000  Cl
  Cl2      1.0000 0.28250  0.97868  0.50946  Biso   1.000  Cl
  H15      1.0000 0.01015  0.81840  0.46260  Biso   1.000  H
  N5       1.0000 0.91720  0.65170  0.46205  Biso   1.000  N
  H16      1.0000 0.85739  0.48705  0.46190  Biso   1.000  H
  H17      1.0000 0.80826  0.98988  0.46260  Biso   1.000  H
  N6       1.0000 0.73451  0.08282  0.46205  Biso   1.000  N
  H18      1.0000 0.62975  0.14268  0.46190  Biso   1.000  H
  C32      1.0000 0.22732  0.07981  0.40485  Biso   1.000  C
  C33      1.0000 0.42434  0.14095  0.40365  Biso   1.000  C
  B2       1.0000 0.78963  0.64173  0.46019  Biso   1.000  B
  B3       1.0000 0.85209  0.21047  0.46019  Biso   1.000  B
  C34      1.0000 0.22134  0.07921  0.39326  Biso   1.000  C
  H19      1.0000 0.16187  0.05952  0.40903  Biso   1.000  H
  C35      1.0000 0.41695  0.14095  0.39195  Biso   1.000  C
  H20      1.0000 0.49423  0.16184  0.40704  Biso   1.000  H
  C36      1.0000 0.77748  0.64829  0.44697  Biso   1.000  C
  O3       1.0000 0.70899  0.53258  0.46556  Biso   1.000  O
  O4       1.0000 0.79006  0.73134  0.46713  Biso   1.000  O
  C37      1.0000 0.87085  0.22257  0.44697  Biso   1.000  C
  O5       1.0000 0.82363  0.29104  0.46556  Biso   1.000  O
  O6       1.0000 0.94134  0.20995  0.46713  Biso   1.000  O
  C38      1.0000 0.31499  0.11085  0.38636  Biso   1.000  C
  H21      1.0000 0.15119  0.05662  0.38983  Biso   1.000  H
  H22      1.0000 0.48219  0.16184  0.38763  Biso   1.000  H
  C39      1.0000 0.74588  0.55467  0.44008  Biso   1.000  C
  C40      1.0000 0.80757  0.75027  0.44139  Biso   1.000  C
  C41      1.0000 0.69914  0.56192  0.47635  Biso   1.000  C
  C42      1.0000 0.74530  0.67950  0.47722  Biso   1.000  C
  C43      1.0000 0.80879  0.25412  0.44008  Biso   1.000  C
  C44      1.0000 0.94271  0.19247  0.44139  Biso   1.000  C
  C45      1.0000 0.86284  0.30094  0.47635  Biso   1.000  C
  C46      1.0000 0.93418  0.25472  0.47722  Biso   1.000  C
  B4       1.0000 0.30834  0.12296  0.37314  Biso   1.000  B
  C47      1.0000 0.74654  0.56072  0.42849  Biso   1.000  C
  H23      1.0000 0.72334  0.48449  0.44350  Biso   1.000  H
  C48      1.0000 0.80759  0.75769  0.42968  Biso   1.000  C
  H24      1.0000 0.82852  0.81550  0.44570  Biso   1.000  H
  C49      1.0000 0.65148  0.49097  0.48544  Biso   1.000  C
  C50      1.0000 0.74299  0.72819  0.48724  Biso   1.000  C
  C51      1.0000 0.81418  0.25353  0.42849  Biso   1.000  C
  H25      1.0000 0.76124  0.27672  0.44350  Biso   1.000  H
  C52      1.0000 0.95010  0.19247  0.42968  Biso   1.000  C
  H26      1.0000 0.98706  0.17158  0.44570  Biso   1.000  H
  C53      1.0000 0.83952  0.34851  0.48544  Biso   1.000  C
  C54      1.0000 0.98518  0.25702  0.48724  Biso   1.000  C
  O7       1.0000 0.39810  0.12347  0.36621  Biso   1.000  O
  O8       1.0000 0.19926  0.04229  0.36777  Biso   1.000  O
  N7       1.0000 0.31836  0.25052  0.37128  Biso   1.000  N
  C55      1.0000 0.77680  0.66245  0.42286  Biso   1.000  C
  H27      1.0000 0.72616  0.49515  0.42430  Biso   1.000  H
  H28      1.0000 0.82852  0.82761  0.42630  Biso   1.000  H
  C56      1.0000 0.65298  0.53975  0.49573  Biso   1.000  C
  H29      1.0000 0.61912  0.41236  0.48470  Biso   1.000  H
  H30      1.0000 0.77134  0.80630  0.48780  Biso   1.000  H
  C57      1.0000 0.69613  0.65588  0.49660  Biso   1.000  C
  C58      1.0000 0.88574  0.22326  0.42286  Biso   1.000  C
  H31      1.0000 0.76902  0.27382  0.42430  Biso   1.000  H
  H32      1.0000 0.99910  0.17158  0.42630  Biso   1.000  H
  C59      1.0000 0.88680  0.34707  0.49573  Biso   1.000  C
  H33      1.0000 0.79332  0.38092  0.48470  Biso   1.000  H
  C60      1.0000 0.95982  0.30392  0.49660  Biso   1.000  C
  H34      1.0000 0.03502  0.22880  0.48780  Biso   1.000  H
  C61      1.0000 0.34613  0.07862  0.35612  Biso   1.000  C
  C62      1.0000 0.22858  0.03240  0.35699  Biso   1.000  C
  C63      1.0000 0.41860  0.34747  0.37080  Biso   1.000  C
  C64      1.0000 0.22385  0.25777  0.37122  Biso   1.000  C
  C65      1.0000 0.78098  0.67080  0.41047  Biso   1.000  C
  Cl3      1.0000 0.59858  0.45252  0.50751  Biso   1.000  Cl
  Cl4      1.0000 0.69615  0.71736  0.50946  Biso   1.000  Cl
  C66      1.0000 0.88985  0.21908  0.41047  Biso   1.000  C
  Cl5      1.0000 0.85396  0.40147  0.50751  Biso   1.000  Cl
  Cl6      1.0000 0.02121  0.30383  0.50946  Biso   1.000  Cl
  C67      1.0000 0.39483  0.07631  0.34609  Biso   1.000  C
  C68      1.0000 0.15763  0.98474  0.34789  Biso   1.000  C
  C69      1.0000 0.42699  0.45226  0.37039  Biso   1.000  C
  H35      1.0000 0.48505  0.34346  0.37073  Biso   1.000  H
  H36      1.0000 0.15378  0.19074  0.37143  Biso   1.000  H
  C70      1.0000 0.22551  0.35915  0.37082  Biso   1.000  C
  C71      1.0000 0.85249  0.77261  0.40485  Biso   1.000  C
  C72      1.0000 0.71656  0.57564  0.40365  Biso   1.000  C
  C73      1.0000 0.92022  0.14762  0.40485  Biso   1.000  C
  C74      1.0000 0.85905  0.28346  0.40365  Biso   1.000  C
  C75      1.0000 0.32257  0.02942  0.33674  Biso   1.000  C
  H37      1.0000 0.47293  0.10462  0.34553  Biso   1.000  H
  C76      1.0000 0.20640  0.98627  0.33760  Biso   1.000  C
  H38      1.0000 0.07903  0.95234  0.34863  Biso   1.000  H
  C77      1.0000 0.32838  0.45900  0.37041  Biso   1.000  C
  H39      1.0000 0.49804  0.51800  0.37013  Biso   1.000  H
  H40      1.0000 0.15756  0.36060  0.37083  Biso   1.000  H
  C78      1.0000 0.85783  0.77858  0.39326  Biso   1.000  C
  H41      1.0000 0.89764  0.83810  0.40903  Biso   1.000  H
  C79      1.0000 0.72392  0.58298  0.39195  Biso   1.000  C
  H42      1.0000 0.66757  0.50573  0.40704  Biso   1.000  H
  C80      1.0000 0.92081  0.14217  0.39326  Biso   1.000  C
  H43      1.0000 0.94052  0.10243  0.40903  Biso   1.000  H
  C81      1.0000 0.85908  0.27612  0.39195  Biso   1.000  C
  H44      1.0000 0.83815  0.33248  0.40704  Biso   1.000  H
  Cl7      1.0000 0.38405  0.02950  0.32388  Biso   1.000  Cl
  Cl8      1.0000 0.11912  0.93179  0.32582  Biso   1.000  Cl
  C82      1.0000 0.33197  0.57002  0.37019  Biso   1.000  C
  C83      1.0000 0.79585  0.68504  0.38636  Biso   1.000  C
  H45      1.0000 0.90552  0.84884  0.38983  Biso   1.000  H
  H46      1.0000 0.67968  0.51783  0.38763  Biso   1.000  H
  C84      1.0000 0.88918  0.20416  0.38636  Biso   1.000  C
  H47      1.0000 0.94339  0.09459  0.38983  Biso   1.000  H
  H48      1.0000 0.83815  0.32038  0.38763  Biso   1.000  H
  N8       1.0000 0.23158  0.56669  0.37018  Biso   1.000  N
  N9       1.0000 0.43329  0.66484  0.37018  Biso   1.000  N
  B5       1.0000 0.81457  0.69161  0.37314  Biso   1.000  B
  B6       1.0000 0.87712  0.18548  0.37314  Biso   1.000  B
  C85      1.0000 0.23807  0.66799  0.37019  Biso   1.000  C
  C86      1.0000 0.43001  0.76196  0.37019  Biso   1.000  C
  N10      1.0000 0.93216  0.68163  0.37128  Biso   1.000  N
  O9       1.0000 0.84307  0.80075  0.36777  Biso   1.000  O
  O10      1.0000 0.72534  0.60191  0.36621  Biso   1.000  O
  N11      1.0000 0.74950  0.06790  0.37128  Biso   1.000  N
  O11      1.0000 0.95769  0.15700  0.36777  Biso   1.000  O
  O12      1.0000 0.87659  0.27467  0.36621  Biso   1.000  O
  N12      1.0000 0.33519  0.76844  0.37018  Biso   1.000  N
  C87      1.0000 0.13069  0.67166  0.37041  Biso   1.000  C
  C88      1.0000 0.54092  0.86931  0.37041  Biso   1.000  C
  C89      1.0000 0.92888  0.58144  0.37080  Biso   1.000  C
  C90      1.0000 0.03390  0.77611  0.37122  Biso   1.000  C
  C91      1.0000 0.80389  0.77142  0.35699  Biso   1.000  C
  C92      1.0000 0.73247  0.65384  0.35612  Biso   1.000  C
  C93      1.0000 0.65258  0.07122  0.37080  Biso   1.000  C
  C94      1.0000 0.74224  0.96609  0.37122  Biso   1.000  C
  C95      1.0000 0.96763  0.19623  0.35699  Biso   1.000  C
  C96      1.0000 0.92142  0.26760  0.35612  Biso   1.000  C
  C97      1.0000 0.02524  0.57300  0.37039  Biso   1.000  C
  C98      1.0000 0.13366  0.77449  0.37082  Biso   1.000  C
  C99      1.0000 0.54775  0.97470  0.37039  Biso   1.000  C
  C100     1.0000 0.64089  0.86632  0.37082  Biso   1.000  C
  H49      1.0000 0.85841  0.51493  0.37073  Biso   1.000  H
  H50      1.0000 0.03697  0.84620  0.37143  Biso   1.000  H
  C101     1.0000 0.82714  0.84228  0.34789  Biso   1.000  C
  C102     1.0000 0.68147  0.60515  0.34609  Biso   1.000  C
  H51      1.0000 0.65656  0.14165  0.37073  Biso   1.000  H
  H52      1.0000 0.80923  0.96302  0.37143  Biso   1.000  H
  C103     1.0000 0.01517  0.17286  0.34789  Biso   1.000  C
  C104     1.0000 0.92366  0.31859  0.34609  Biso   1.000  C
  H53      1.0000 0.01996  0.50189  0.37013  Biso   1.000  H
  H54      1.0000 0.20309  0.84245  0.37083  Biso   1.000  H
  H55      1.0000 0.48194  0.97999  0.37013  Biso   1.000  H
  H56      1.0000 0.63934  0.79692  0.37083  Biso   1.000  H
  C105     1.0000 0.77986  0.79350  0.33760  Biso   1.000  C
  H57      1.0000 0.87339  0.92090  0.34863  Biso   1.000  H
  H58      1.0000 0.63171  0.52704  0.34553  Biso   1.000  H
  C106     1.0000 0.70692  0.67746  0.33674  Biso   1.000  C
  C107     1.0000 0.01365  0.22019  0.33760  Biso   1.000  C
  H59      1.0000 0.04764  0.12673  0.34863  Biso   1.000  H
  H60      1.0000 0.89539  0.36838  0.34553  Biso   1.000  H
  C108     1.0000 0.97062  0.29318  0.33674  Biso   1.000  C
  Cl9      1.0000 0.81273  0.88082  0.32582  Biso   1.000  Cl
  Cl10     1.0000 0.64541  0.61589  0.32388  Biso   1.000  Cl
  Cl11     1.0000 0.06813  0.18736  0.32582  Biso   1.000  Cl
  Cl12     1.0000 0.97049  0.35465  0.32388  Biso   1.000  Cl
  C109     1.0000 0.55878  0.53301  0.53749  Biso   1.000  C
  C110     1.0000 0.55719  0.63277  0.53789  Biso   1.000  C
  C111     1.0000 0.66166  0.53600  0.53708  Biso   1.000  C
  H61      1.0000 0.49092  0.46360  0.53750  Biso   1.000  H
  N13      1.0000 0.65170  0.73450  0.53795  Biso   1.000  N
  H62      1.0000 0.48713  0.62970  0.53810  Biso   1.000  H
  C112     1.0000 0.76029  0.64139  0.53706  Biso   1.000  C
  C113     1.0000 0.66525  0.42856  0.53686  Biso   1.000  C
  B7       1.0000 0.64167  0.85208  0.53981  Biso   1.000  B
  C114     1.0000 0.75187  0.73782  0.53747  Biso   1.000  C
  H63      1.0000 0.83139  0.64667  0.53680  Biso   1.000  H
  N14      1.0000 0.76659  0.43512  0.53685  Biso   1.000  N
  N15      1.0000 0.56489  0.33152  0.53685  Biso   1.000  N
  O13      1.0000 0.53261  0.82360  0.53444  Biso   1.000  O
  O14      1.0000 0.73138  0.94127  0.53287  Biso   1.000  O
  C115     1.0000 0.64827  0.87076  0.55303  Biso   1.000  C
  H64      1.0000 0.81839  0.80826  0.53740  Biso   1.000  H
  C116     1.0000 0.76326  0.33468  0.53686  Biso   1.000  C
  C117     1.0000 0.57139  0.23670  0.53686  Biso   1.000  C
  C118     1.0000 0.56185  0.86274  0.52365  Biso   1.000  C
  C119     1.0000 0.67947  0.93420  0.52278  Biso   1.000  C
  C120     1.0000 0.55466  0.80877  0.55992  Biso   1.000  C
  C121     1.0000 0.75023  0.94264  0.55861  Biso   1.000  C
  C122     1.0000 0.87427  0.33826  0.53708  Biso   1.000  C
  N16      1.0000 0.66845  0.23338  0.53685  Biso   1.000  N
  C123     1.0000 0.46397  0.12569  0.53708  Biso   1.000  C
  C124     1.0000 0.49099  0.83946  0.51456  Biso   1.000  C
  C125     1.0000 0.72816  0.98519  0.51276  Biso   1.000  C
  H65      1.0000 0.48449  0.76119  0.55650  Biso   1.000  H
  C126     1.0000 0.56067  0.81414  0.57151  Biso   1.000  C
  C127     1.0000 0.75770  0.95006  0.57032  Biso   1.000  C
  H66      1.0000 0.81545  0.98698  0.55430  Biso   1.000  H
  C128     1.0000 0.88111  0.23969  0.53706  Biso   1.000  C
  C129     1.0000 0.97417  0.44118  0.53749  Biso   1.000  C
  C130     1.0000 0.35858  0.11886  0.53706  Biso   1.000  C
  C131     1.0000 0.46699  0.02584  0.53749  Biso   1.000  C
  C132     1.0000 0.53976  0.88679  0.50427  Biso   1.000  C
  H67      1.0000 0.41235  0.79325  0.51530  Biso   1.000  H
  C133     1.0000 0.65586  0.95978  0.50340  Biso   1.000  C
  H68      1.0000 0.80634  0.03507  0.51220  Biso   1.000  H
  H69      1.0000 0.49517  0.76895  0.57570  Biso   1.000  H
  C134     1.0000 0.66245  0.88568  0.57714  Biso   1.000  C
  H70      1.0000 0.82756  0.99909  0.57370  Biso   1.000  H
  H71      1.0000 0.81527  0.16858  0.53680  Biso   1.000  H
  C135     1.0000 0.98590  0.24813  0.53747  Biso   1.000  C
  H72      1.0000 0.97266  0.50905  0.53750  Biso   1.000  H
  C136     1.0000 0.07556  0.44280  0.53789  Biso   1.000  C
  H73      1.0000 0.35331  0.18469  0.53680  Biso   1.000  H
  C137     1.0000 0.26217  0.01407  0.53747  Biso   1.000  C
  H74      1.0000 0.53639  0.02729  0.53750  Biso   1.000  H
  C138     1.0000 0.36710  0.92428  0.53789  Biso   1.000  C
  Cl13     1.0000 0.45253  0.85396  0.49249  Biso   1.000  Cl
  Cl14     1.0000 0.71739  0.02126  0.49054  Biso   1.000  Cl
  C139     1.0000 0.67082  0.88986  0.58953  Biso   1.000  C
  H75      1.0000 0.98987  0.18162  0.53740  Biso   1.000  H
  N17      1.0000 0.08281  0.34832  0.53795  Biso   1.000  N
  H76      1.0000 0.14258  0.51289  0.53810  Biso   1.000  H
  H77      1.0000 0.19171  0.01006  0.53740  Biso   1.000  H
  N18      1.0000 0.26546  0.91712  0.53795  Biso   1.000  N
  H78      1.0000 0.37026  0.85735  0.53810  Biso   1.000  H
  C140     1.0000 0.77257  0.92013  0.59515  Biso   1.000  C
  C141     1.0000 0.57560  0.85908  0.59635  Biso   1.000  C
  B8       1.0000 0.21038  0.35830  0.53981  Biso   1.000  B
  B9       1.0000 0.14784  0.78956  0.53981  Biso   1.000  B
  C142     1.0000 0.77863  0.92072  0.60674  Biso   1.000  C
  H79      1.0000 0.83810  0.94042  0.59097  Biso   1.000  H
  H80      1.0000 0.50571  0.83819  0.59296  Biso   1.000  H
  C143     1.0000 0.58306  0.85908  0.60805  Biso   1.000  C
  C144     1.0000 0.22246  0.35173  0.55303  Biso   1.000  C
  O15      1.0000 0.29098  0.46735  0.53444  Biso   1.000  O
  O16      1.0000 0.20984  0.26859  0.53287  Biso   1.000  O
  C145     1.0000 0.12916  0.77745  0.55303  Biso   1.000  C
  O17      1.0000 0.17633  0.70889  0.53444  Biso   1.000  O
  O18      1.0000 0.05863  0.78998  0.53287  Biso   1.000  O
  C146     1.0000 0.68503  0.88918  0.61364  Biso   1.000  C
  H81      1.0000 0.84878  0.94332  0.61017  Biso   1.000  H
  H82      1.0000 0.51782  0.83819  0.61237  Biso   1.000  H
  C147     1.0000 0.25409  0.44527  0.55992  Biso   1.000  C
  C148     1.0000 0.19233  0.24966  0.55861  Biso   1.000  C
  C149     1.0000 0.30087  0.43811  0.52365  Biso   1.000  C
  C150     1.0000 0.25471  0.32052  0.52278  Biso   1.000  C
  C151     1.0000 0.19118  0.74582  0.55992  Biso   1.000  C
  C152     1.0000 0.05730  0.80755  0.55861  Biso   1.000  C
  C153     1.0000 0.13713  0.69900  0.52365  Biso   1.000  C
  C154     1.0000 0.06579  0.74522  0.52278  Biso   1.000  C
  B10      1.0000 0.69160  0.87707  0.62686  Biso   1.000  B
  H83      1.0000 0.27667  0.51553  0.55650  Biso   1.000  H
  C155     1.0000 0.25347  0.43930  0.57151  Biso   1.000  C
  C156     1.0000 0.19243  0.24233  0.57032  Biso   1.000  C
  H84      1.0000 0.17150  0.18452  0.55430  Biso   1.000  H
  C157     1.0000 0.34849  0.50897  0.51456  Biso   1.000  C
  C158     1.0000 0.25702  0.27183  0.51276  Biso   1.000  C
  H85      1.0000 0.23873  0.72322  0.55650  Biso   1.000  H
  C159     1.0000 0.18572  0.74641  0.57151  Biso   1.000  C
  C160     1.0000 0.04984  0.80755  0.57032  Biso   1.000  C
  H86      1.0000 0.01295  0.82844  0.55430  Biso   1.000  H
  C161     1.0000 0.16045  0.65142  0.51456  Biso   1.000  C
  C162     1.0000 0.01479  0.74292  0.51276  Biso   1.000  C
  O19      1.0000 0.80071  0.95765  0.63223  Biso   1.000  O
  O20      1.0000 0.60192  0.87656  0.63379  Biso   1.000  O
  N19      1.0000 0.68161  0.74942  0.62872  Biso   1.000  N
  H87      1.0000 0.27373  0.50479  0.57570  Biso   1.000  H
  C163     1.0000 0.22317  0.33749  0.57714  Biso   1.000  C
  H88      1.0000 0.17150  0.17241  0.57370  Biso   1.000  H
  C164     1.0000 0.34699  0.46019  0.50427  Biso   1.000  C
  H89      1.0000 0.38085  0.58758  0.51530  Biso   1.000  H
  H90      1.0000 0.22868  0.19373  0.51220  Biso   1.000  H
  C165     1.0000 0.30384  0.34406  0.50340  Biso   1.000  C
  H91      1.0000 0.23095  0.72612  0.57570  Biso   1.000  H
  C166     1.0000 0.11423  0.77668  0.57714  Biso   1.000  C
  H92      1.0000 0.00084  0.82844  0.57370  Biso   1.000  H
  C167     1.0000 0.11314  0.65296  0.50427  Biso   1.000  C
  H93      1.0000 0.20665  0.61902  0.51530  Biso   1.000  H
  H94      1.0000 0.96500  0.77123  0.51220  Biso   1.000  H
  C168     1.0000 0.04015  0.69602  0.50340  Biso   1.000  C
  C169     1.0000 0.77139  0.96754  0.64301  Biso   1.000  C
  C170     1.0000 0.65384  0.92132  0.64388  Biso   1.000  C
  C171     1.0000 0.58141  0.65256  0.62920  Biso   1.000  C
  C172     1.0000 0.77609  0.74226  0.62878  Biso   1.000  C
  C173     1.0000 0.21899  0.32913  0.58953  Biso   1.000  C
  Cl15     1.0000 0.40143  0.54751  0.49249  Biso   1.000  Cl
  Cl16     1.0000 0.30382  0.28258  0.49054  Biso   1.000  Cl
  C174     1.0000 0.11004  0.78086  0.58953  Biso   1.000  C
  Cl17     1.0000 0.14601  0.59847  0.49249  Biso   1.000  Cl
  Cl18     1.0000 0.97876  0.69610  0.49054  Biso   1.000  Cl
  C175     1.0000 0.84234  0.01520  0.65211  Biso   1.000  C
  C176     1.0000 0.60514  0.92362  0.65391  Biso   1.000  C
  C177     1.0000 0.57302  0.54776  0.62961  Biso   1.000  C
  H95      1.0000 0.51496  0.65656  0.62927  Biso   1.000  H
  H96      1.0000 0.84623  0.80928  0.62857  Biso   1.000  H
  C178     1.0000 0.77451  0.64087  0.62918  Biso   1.000  C
  C179     1.0000 0.14748  0.22732  0.59515  Biso   1.000  C
  C180     1.0000 0.28345  0.42438  0.59635  Biso   1.000  C
  C181     1.0000 0.07980  0.85240  0.59515  Biso   1.000  C
  C182     1.0000 0.14092  0.71648  0.59635  Biso   1.000  C
  C183     1.0000 0.79354  0.01375  0.66240  Biso   1.000  C
  H97      1.0000 0.92094  0.04760  0.65137  Biso   1.000  H
  H98      1.0000 0.52704  0.89531  0.65447  Biso   1.000  H
  C184     1.0000 0.67740  0.97052  0.66326  Biso   1.000  C
  C185     1.0000 0.67159  0.54094  0.62959  Biso   1.000  C
  H99      1.0000 0.50193  0.48194  0.62987  Biso   1.000  H
  H100     1.0000 0.84241  0.63934  0.62917  Biso   1.000  H
  C186     1.0000 0.14214  0.22136  0.60674  Biso   1.000  C
  H101     1.0000 0.10226  0.16184  0.59097  Biso   1.000  H
  H102     1.0000 0.33240  0.49421  0.59296  Biso   1.000  H
  C187     1.0000 0.27597  0.41696  0.60805  Biso   1.000  C
  C188     1.0000 0.07916  0.85777  0.60674  Biso   1.000  C
  H103     1.0000 0.05949  0.89759  0.59097  Biso   1.000  H
  H104     1.0000 0.16174  0.66745  0.59296  Biso   1.000  H
  C189     1.0000 0.14086  0.72390  0.60805  Biso   1.000  C
  Cl19     1.0000 0.88085  0.06815  0.67418  Biso   1.000  Cl
  Cl20     1.0000 0.61592  0.97044  0.67612  Biso   1.000  Cl
  C190     1.0000 0.66800  0.42992  0.62981  Biso   1.000  C
  C191     1.0000 0.20409  0.31498  0.61364  Biso   1.000  C
  H105     1.0000 0.09449  0.15118  0.61017  Biso   1.000  H
  H106     1.0000 0.32033  0.48219  0.61237  Biso   1.000  H
  C192     1.0000 0.11078  0.79578  0.61364  Biso   1.000  C
  H107     1.0000 0.05658  0.90535  0.61017  Biso   1.000  H
  H108     1.0000 0.16174  0.67956  0.61237  Biso   1.000  H
  N20      1.0000 0.76839  0.43325  0.62982  Biso   1.000  N
  N21      1.0000 0.56672  0.33519  0.62982  Biso   1.000  N
  B11      1.0000 0.18540  0.30833  0.62686  Biso   1.000  B
  B12      1.0000 0.12285  0.81446  0.62686  Biso   1.000  B
  C193     1.0000 0.76190  0.33195  0.62981  Biso   1.000  C
  C194     1.0000 0.57000  0.23807  0.62981  Biso   1.000  C
  N22      1.0000 0.06785  0.31839  0.62872  Biso   1.000  N
  O21      1.0000 0.15694  0.19927  0.63223  Biso   1.000  O
  O22      1.0000 0.27456  0.39803  0.63379  Biso   1.000  O
  N23      1.0000 0.25047  0.93204  0.62872  Biso   1.000  N
  O23      1.0000 0.04232  0.84302  0.63223  Biso   1.000  O
  O24      1.0000 0.12338  0.72527  0.63379  Biso   1.000  O
  N24      1.0000 0.66483  0.23159  0.62982  Biso   1.000  N
  C195     1.0000 0.86932  0.32837  0.62959  Biso   1.000  C
  C196     1.0000 0.45898  0.13063  0.62959  Biso   1.000  C
  C197     1.0000 0.07113  0.41858  0.62920  Biso   1.000  C
  C198     1.0000 0.96607  0.22383  0.62878  Biso   1.000  C
  C199     1.0000 0.19612  0.22860  0.64301  Biso   1.000  C
  C200     1.0000 0.26754  0.34619  0.64388  Biso   1.000  C
  C201     1.0000 0.34736  0.92880  0.62920  Biso   1.000  C
  C202     1.0000 0.25773  0.03385  0.62878  Biso   1.000  C
  C203     1.0000 0.03238  0.80380  0.64301  Biso   1.000  C
  C204     1.0000 0.07859  0.73243  0.64388  Biso   1.000  C
  C205     1.0000 0.97473  0.42694  0.62961  Biso   1.000  C
  C206     1.0000 0.86631  0.22545  0.62918  Biso   1.000  C
  C207     1.0000 0.45222  0.02524  0.62961  Biso   1.000  C
  C208     1.0000 0.35913  0.13370  0.62918  Biso   1.000  C
  H109     1.0000 0.14160  0.48509  0.62927  Biso   1.000  H
  H110     1.0000 0.96300  0.15374  0.62857  Biso   1.000  H
  C209     1.0000 0.17283  0.15766  0.65211  Biso   1.000  C
  C210     1.0000 0.31854  0.39488  0.65391  Biso   1.000  C
  H111     1.0000 0.34341  0.85828  0.62927  Biso   1.000  H
  H112     1.0000 0.19078  0.03701  0.62857  Biso   1.000  H
  C211     1.0000 0.98480  0.82708  0.65211  Biso   1.000  C
  C212     1.0000 0.07624  0.68135  0.65391  Biso   1.000  C
  H113     1.0000 0.98001  0.49805  0.62987  Biso   1.000  H
  H114     1.0000 0.79692  0.15758  0.62917  Biso   1.000  H
  H115     1.0000 0.51803  0.01995  0.62987  Biso   1.000  H
  H116     1.0000 0.36063  0.20302  0.62917  Biso   1.000  H
  C213     1.0000 0.22011  0.20643  0.66240  Biso   1.000  C
  H117     1.0000 0.12658  0.07904  0.65137  Biso   1.000  H
  H118     1.0000 0.36830  0.47298  0.65447  Biso   1.000  H
  C214     1.0000 0.29310  0.32257  0.66326  Biso   1.000  C
  C215     1.0000 0.98624  0.77975  0.66240  Biso   1.000  C
  H119     1.0000 0.95237  0.87329  0.65137  Biso   1.000  H
  H120     1.0000 0.10458  0.63156  0.65447  Biso   1.000  H
  C216     1.0000 0.02935  0.70676  0.66326  Biso   1.000  C
  Cl21     1.0000 0.18728  0.11920  0.67418  Biso   1.000  Cl
  Cl22     1.0000 0.35456  0.38405  0.67612  Biso   1.000  Cl
  Cl23     1.0000 0.93184  0.81258  0.67418  Biso   1.000  Cl
  Cl24     1.0000 0.02945  0.64537  0.67612  Biso   1.000  Cl
  C217     1.0000 0.01075  0.63721  0.32994  Biso   1.000  C
  C218     1.0000 0.93853  0.59040  0.32057  Biso   1.000  C
  C219     1.0000 0.93841  0.59031  0.32057  Biso   1.000  C
  C220     1.0000 0.12684  0.68035  0.32906  Biso   1.000  C
  Cl25     1.0000 0.94931  0.63721  0.34279  Biso   1.000  Cl
  Cl26     1.0000 0.94919  0.63712  0.34279  Biso   1.000  Cl
  C221     1.0000 0.98718  0.58801  0.31056  Biso   1.000  C
  C222     1.0000 0.98722  0.58809  0.31056  Biso   1.000  C
  C223     1.0000 0.98711  0.58801  0.31056  Biso   1.000  C
  H121     1.0000 0.86043  0.56209  0.32113  Biso   1.000  H
  H122     1.0000 0.86031  0.56200  0.32113  Biso   1.000  H
  C224     1.0000 0.01079  0.63729  0.32994  Biso   1.000  C
  C225     1.0000 0.17568  0.68189  0.31877  Biso   1.000  C
  Cl27     1.0000 0.21419  0.73484  0.34084  Biso   1.000  Cl
  O25      1.0000 0.93526  0.54324  0.30047  Biso   1.000  O
  C226     1.0000 0.10481  0.63422  0.30969  Biso   1.000  C
  H123     1.0000 0.25424  0.71421  0.31803  Biso   1.000  H
  H124     1.0000 0.25428  0.71429  0.31803  Biso   1.000  H
  B13      1.0000 0.02494  0.54375  0.29352  Biso   1.000  B
  O26      1.0000 0.13405  0.62433  0.29889  Biso   1.000  O
  C227     1.0000 0.01837  0.55586  0.28030  Biso   1.000  C
  N25      1.0000 0.01495  0.41611  0.29538  Biso   1.000  N
  N26      1.0000 0.01499  0.41619  0.29538  Biso   1.000  N
  C228     1.0000 0.91640  0.52576  0.27473  Biso   1.000  C
  C229     1.0000 0.11202  0.58750  0.27342  Biso   1.000  C
  C230     1.0000 0.11190  0.58741  0.27342  Biso   1.000  C
  C231     1.0000 0.91475  0.31924  0.29586  Biso   1.000  C
  C232     1.0000 0.10944  0.40895  0.29544  Biso   1.000  C
  H125     1.0000 0.85112  0.50479  0.27903  Biso   1.000  H
  C233     1.0000 0.90895  0.52576  0.26301  Biso   1.000  C
  H126     1.0000 0.85117  0.50487  0.27903  Biso   1.000  H
  C234     1.0000 0.10592  0.58682  0.26183  Biso   1.000  C
  C235     1.0000 0.10596  0.58690  0.26183  Biso   1.000  C
  H127     1.0000 0.18213  0.61001  0.27683  Biso   1.000  H
  H128     1.0000 0.18217  0.61009  0.27683  Biso   1.000  H
  C236     1.0000 0.90637  0.21445  0.29627  Biso   1.000  C
  H129     1.0000 0.84823  0.32325  0.29593  Biso   1.000  H
  H130     1.0000 0.17957  0.47597  0.29523  Biso   1.000  H
  C237     1.0000 0.10792  0.30756  0.29584  Biso   1.000  C
  H131     1.0000 0.83909  0.50479  0.25964  Biso   1.000  H
  H132     1.0000 0.83913  0.50487  0.25964  Biso   1.000  H
  H133     1.0000 0.83901  0.50479  0.25964  Biso   1.000  H
  H134     1.0000 0.83906  0.50487  0.25964  Biso   1.000  H
  C238     1.0000 0.00416  0.55654  0.25619  Biso   1.000  C
  H135     1.0000 0.17145  0.60711  0.25763  Biso   1.000  H
  H136     1.0000 0.17149  0.60719  0.25763  Biso   1.000  H
  H137     1.0000 0.83532  0.14871  0.29653  Biso   1.000  H
  C239     1.0000 0.00494  0.20763  0.29625  Biso   1.000  C
  C240     1.0000 0.00501  0.20763  0.29625  Biso   1.000  C
  H138     1.0000 0.17576  0.30603  0.29583  Biso   1.000  H
  C241     1.0000 0.99587  0.55237  0.24381  Biso   1.000  C
  C242     1.0000 0.99580  0.55237  0.24381  Biso   1.000  C
  C243     1.0000 0.00138  0.09669  0.29647  Biso   1.000  C
  C244     1.0000 0.89405  0.48091  0.23818  Biso   1.000  C
  C245     1.0000 0.09109  0.61683  0.23698  Biso   1.000  C
  C246     1.0000 0.09097  0.61674  0.23698  Biso   1.000  C
  N27      1.0000 0.90007  0.00188  0.29648  Biso   1.000  N
  N28      1.0000 0.10181  0.09993  0.29648  Biso   1.000  N
  C247     1.0000 0.88800  0.47545  0.22659  Biso   1.000  C
  H139     1.0000 0.82851  0.43563  0.24236  Biso   1.000  H
  C248     1.0000 0.88807  0.47545  0.22659  Biso   1.000  C
  H140     1.0000 0.82855  0.43572  0.24236  Biso   1.000  H
  H141     1.0000 0.16098  0.66577  0.24037  Biso   1.000  H
  H142     1.0000 0.16090  0.66577  0.24037  Biso   1.000  H
  C249     1.0000 0.08357  0.60933  0.22528  Biso   1.000  C
  C250     1.0000 0.08362  0.60941  0.22528  Biso   1.000  C
  C251     1.0000 0.90338  0.90467  0.29647  Biso   1.000  C
  C252     1.0000 0.09520  0.99855  0.29647  Biso   1.000  C
  H143     1.0000 0.81784  0.42788  0.22316  Biso   1.000  H
  C253     1.0000 0.98162  0.53744  0.21969  Biso   1.000  C
  C254     1.0000 0.98166  0.53753  0.21969  Biso   1.000  C
  H144     1.0000 0.14879  0.65367  0.22096  Biso   1.000  H
  N29      1.0000 0.99813  0.89819  0.29648  Biso   1.000  N
  C255     1.0000 0.79228  0.79723  0.29625  Biso   1.000  C
  C256     1.0000 0.79232  0.79732  0.29625  Biso   1.000  C
  C257     1.0000 0.20262  0.99497  0.29625  Biso   1.000  C
  B14      1.0000 0.97508  0.51877  0.20647  Biso   1.000  B
  C258     1.0000 0.78556  0.69193  0.29627  Biso   1.000  C
  C259     1.0000 0.69250  0.80030  0.29584  Biso   1.000  C
  C260     1.0000 0.69243  0.80030  0.29584  Biso   1.000  C
  C261     1.0000 0.19961  0.89205  0.29584  Biso   1.000  C
  C262     1.0000 0.30812  0.09371  0.29627  Biso   1.000  C
  C263     1.0000 0.30800  0.09362  0.29627  Biso   1.000  C
  O27      1.0000 0.86596  0.49029  0.20110  Biso   1.000  O
  N30      1.0000 0.98504  0.40119  0.20461  Biso   1.000  N
  O28      1.0000 0.06473  0.60796  0.19954  Biso   1.000  O
  H145     1.0000 0.85133  0.68655  0.29653  Biso   1.000  H
  C264     1.0000 0.68070  0.59549  0.29586  Biso   1.000  C
  C265     1.0000 0.59103  0.70045  0.29544  Biso   1.000  C
  H146     1.0000 0.69397  0.86971  0.29583  Biso   1.000  H
  H147     1.0000 0.13022  0.82418  0.29583  Biso   1.000  H
  C266     1.0000 0.29942  0.89052  0.29544  Biso   1.000  C
  H148     1.0000 0.31335  0.16474  0.29653  Biso   1.000  H
  C267     1.0000 0.40447  0.08527  0.29586  Biso   1.000  C
  C268     1.0000 0.89520  0.52943  0.19032  Biso   1.000  C
  C269     1.0000 0.89524  0.52951  0.19032  Biso   1.000  C
  C270     1.0000 0.89054  0.29946  0.20455  Biso   1.000  C
  C271     1.0000 0.08521  0.40451  0.20414  Biso   1.000  C
  C272     1.0000 0.01289  0.60088  0.18945  Biso   1.000  C
  N31      1.0000 0.58381  0.59873  0.29538  Biso   1.000  N
  N32      1.0000 0.58386  0.59881  0.29538  Biso   1.000  N
  H149     1.0000 0.67668  0.52497  0.29593  Biso   1.000  H
  H150     1.0000 0.52408  0.70361  0.29523  Biso   1.000  H
  H151     1.0000 0.52397  0.70352  0.29523  Biso   1.000  H
  N33      1.0000 0.40111  0.98491  0.29538  Biso   1.000  N
  H152     1.0000 0.29630  0.82034  0.29523  Biso   1.000  H
  N34      1.0000 0.40115  0.98499  0.29538  Biso   1.000  N
  H153     1.0000 0.29634  0.82043  0.29523  Biso   1.000  H
  H154     1.0000 0.47490  0.15169  0.29593  Biso   1.000  H
  H155     1.0000 0.47494  0.15178  0.29593  Biso   1.000  H
  C273     1.0000 0.82434  0.50615  0.18123  Biso   1.000  C
  C274     1.0000 0.82438  0.50624  0.18123  Biso   1.000  C
  C275     1.0000 0.89212  0.19970  0.20416  Biso   1.000  C
  C276     1.0000 0.89220  0.19970  0.20416  Biso   1.000  C
  H156     1.0000 0.82040  0.29639  0.20477  Biso   1.000  H
  C277     1.0000 0.09363  0.30807  0.20373  Biso   1.000  C
  H157     1.0000 0.15178  0.47503  0.20406  Biso   1.000  H
  H158     1.0000 0.15166  0.47494  0.20406  Biso   1.000  H
  C278     1.0000 0.06150  0.65187  0.17942  Biso   1.000  C
  B15      1.0000 0.45620  0.48114  0.29352  Biso   1.000  B
  B16      1.0000 0.45624  0.48123  0.29352  Biso   1.000  B
  B17      1.0000 0.51870  0.97493  0.29352  Biso   1.000  B
  B18      1.0000 0.51874  0.97502  0.29352  Biso   1.000  B
  H159     1.0000 0.74581  0.46002  0.18197  Biso   1.000  H
  C279     1.0000 0.87310  0.55348  0.17094  Biso   1.000  C
  H160     1.0000 0.74574  0.46002  0.18197  Biso   1.000  H
  H161     1.0000 0.82426  0.13029  0.20417  Biso   1.000  H
  C280     1.0000 0.99501  0.20268  0.20375  Biso   1.000  C
  H162     1.0000 0.16473  0.31336  0.20346  Biso   1.000  H
  C281     1.0000 0.98928  0.62646  0.17007  Biso   1.000  C
  H163     1.0000 0.13964  0.70167  0.17887  Biso   1.000  H
  C282     1.0000 0.44413  0.46247  0.28030  Biso   1.000  C
  O29      1.0000 0.37562  0.50962  0.29889  Biso   1.000  O
  O30      1.0000 0.45672  0.39195  0.30047  Biso   1.000  O
  O31      1.0000 0.37566  0.50971  0.29889  Biso   1.000  O
  O32      1.0000 0.45676  0.39204  0.30047  Biso   1.000  O
  C283     1.0000 0.53746  0.98158  0.28030  Biso   1.000  C
  C284     1.0000 0.53739  0.98158  0.28030  Biso   1.000  C
  O33      1.0000 0.49017  0.86587  0.29889  Biso   1.000  O
  O34      1.0000 0.60798  0.06472  0.30047  Biso   1.000  O
  O35      1.0000 0.60802  0.06480  0.30047  Biso   1.000  O
  O36      1.0000 0.60790  0.06472  0.30047  Biso   1.000  O
  O37      1.0000 0.60794  0.06480  0.30047  Biso   1.000  O
  Cl28     1.0000 0.78587  0.52065  0.15916  Biso   1.000  Cl
  C285     1.0000 0.99859  0.09524  0.20353  Biso   1.000  C
  C286     1.0000 0.99863  0.09533  0.20353  Biso   1.000  C
  Cl29     1.0000 0.05074  0.68794  0.15721  Biso   1.000  Cl
  C287     1.0000 0.41250  0.52446  0.27342  Biso   1.000  C
  C288     1.0000 0.41258  0.52446  0.27342  Biso   1.000  C
  C289     1.0000 0.47420  0.39059  0.27473  Biso   1.000  C
  C290     1.0000 0.36573  0.47049  0.30969  Biso   1.000  C
  C291     1.0000 0.41189  0.39903  0.31056  Biso   1.000  C
  C292     1.0000 0.41193  0.39912  0.31056  Biso   1.000  C
  C293     1.0000 0.47544  0.88796  0.27342  Biso   1.000  C
  C294     1.0000 0.47536  0.88796  0.27342  Biso   1.000  C
  C295     1.0000 0.60939  0.08365  0.27473  Biso   1.000  C
  C296     1.0000 0.60932  0.08365  0.27473  Biso   1.000  C
  C297     1.0000 0.52942  0.89521  0.30969  Biso   1.000  C
  C298     1.0000 0.60088  0.01288  0.31056  Biso   1.000  C
  N35      1.0000 0.89815  0.99804  0.20351  Biso   1.000  N
  N36      1.0000 0.89819  0.99812  0.20351  Biso   1.000  N
  N37      1.0000 0.09994  0.10181  0.20351  Biso   1.000  N
  H164     1.0000 0.38992  0.57204  0.27683  Biso   1.000  H
  C299     1.0000 0.41314  0.51909  0.26183  Biso   1.000  C
  H165     1.0000 0.38996  0.57212  0.27683  Biso   1.000  H
  C300     1.0000 0.47419  0.38317  0.26301  Biso   1.000  C
  H166     1.0000 0.49513  0.34633  0.27903  Biso   1.000  H
  C301     1.0000 0.31814  0.49376  0.31877  Biso   1.000  C
  C302     1.0000 0.40958  0.34804  0.32057  Biso   1.000  C
  C303     1.0000 0.40963  0.34813  0.32057  Biso   1.000  C
  H167     1.0000 0.42780  0.81778  0.27683  Biso   1.000  H
  H168     1.0000 0.42787  0.81778  0.27683  Biso   1.000  H
  C304     1.0000 0.48083  0.89401  0.26183  Biso   1.000  C
  H169     1.0000 0.65367  0.14888  0.27903  Biso   1.000  H
  C305     1.0000 0.61672  0.09107  0.26301  Biso   1.000  C
  C306     1.0000 0.50606  0.82426  0.31877  Biso   1.000  C
  C307     1.0000 0.65181  0.06156  0.32057  Biso   1.000  C
  C308     1.0000 0.90469  0.90331  0.20353  Biso   1.000  C
  C309     1.0000 0.09661  0.00136  0.20353  Biso   1.000  C
  H170     1.0000 0.39283  0.56428  0.25763  Biso   1.000  H
  C310     1.0000 0.44346  0.44755  0.25619  Biso   1.000  C
  C311     1.0000 0.44350  0.44763  0.25619  Biso   1.000  C
  C312     1.0000 0.44339  0.44755  0.25619  Biso   1.000  C
  C313     1.0000 0.44343  0.44763  0.25619  Biso   1.000  C
  H171     1.0000 0.49516  0.33414  0.25964  Biso   1.000  H
  H172     1.0000 0.49520  0.33423  0.25964  Biso   1.000  H
  H173     1.0000 0.49509  0.33414  0.25964  Biso   1.000  H
  H174     1.0000 0.49513  0.33423  0.25964  Biso   1.000  H
  H175     1.0000 0.28572  0.53998  0.31803  Biso   1.000  H
  H176     1.0000 0.28579  0.53998  0.31803  Biso   1.000  H
  C314     1.0000 0.31959  0.44644  0.32906  Biso   1.000  C
  C315     1.0000 0.31963  0.44652  0.32906  Biso   1.000  C
  H177     1.0000 0.43793  0.29824  0.32113  Biso   1.000  H
  H178     1.0000 0.43797  0.29833  0.32113  Biso   1.000  H
  C316     1.0000 0.36274  0.37354  0.32994  Biso   1.000  C
  C317     1.0000 0.55229  0.99574  0.25619  Biso   1.000  C
  H179     1.0000 0.43568  0.82853  0.25763  Biso   1.000  H
  C318     1.0000 0.55233  0.99582  0.25619  Biso   1.000  C
  H180     1.0000 0.43560  0.82853  0.25763  Biso   1.000  H
  H181     1.0000 0.66578  0.16099  0.25964  Biso   1.000  H
  C319     1.0000 0.55341  0.87304  0.32906  Biso   1.000  C
  C320     1.0000 0.55346  0.87312  0.32906  Biso   1.000  C
  H182     1.0000 0.45993  0.74573  0.31803  Biso   1.000  H
  C321     1.0000 0.62640  0.98917  0.32994  Biso   1.000  C
  H183     1.0000 0.70165  0.13967  0.32113  Biso   1.000  H
  C322     1.0000 0.79727  0.79229  0.20375  Biso   1.000  C
  C323     1.0000 0.79734  0.79229  0.20375  Biso   1.000  C
  N38      1.0000 0.00183  0.89998  0.20351  Biso   1.000  N
  C324     1.0000 0.20765  0.00503  0.20375  Biso   1.000  C
  C325     1.0000 0.44762  0.44346  0.24381  Biso   1.000  C
  Cl30     1.0000 0.26518  0.47927  0.34084  Biso   1.000  Cl
  Cl31     1.0000 0.26523  0.47935  0.34084  Biso   1.000  Cl
  Cl32     1.0000 0.36279  0.31206  0.34279  Biso   1.000  Cl
  C326     1.0000 0.55651  0.00418  0.24381  Biso   1.000  C
  Cl33     1.0000 0.52058  0.78581  0.34084  Biso   1.000  Cl
  Cl34     1.0000 0.68794  0.05082  0.34279  Biso   1.000  Cl
  Cl35     1.0000 0.68782  0.05073  0.34279  Biso   1.000  Cl
  C327     1.0000 0.69192  0.78555  0.20373  Biso   1.000  C
  C328     1.0000 0.80029  0.69244  0.20416  Biso   1.000  C
  C329     1.0000 0.21433  0.90629  0.20373  Biso   1.000  C
  C330     1.0000 0.30751  0.10786  0.20416  Biso   1.000  C
  C331     1.0000 0.51906  0.41310  0.23818  Biso   1.000  C
  C332     1.0000 0.38318  0.47424  0.23698  Biso   1.000  C
  C333     1.0000 0.52573  0.90893  0.23698  Biso   1.000  C
  C334     1.0000 0.52561  0.90885  0.23698  Biso   1.000  C
  C335     1.0000 0.58681  0.10599  0.23818  Biso   1.000  C
  H184     1.0000 0.68661  0.85129  0.20346  Biso   1.000  H
  C336     1.0000 0.59551  0.68076  0.20414  Biso   1.000  C
  H185     1.0000 0.86969  0.69389  0.20417  Biso   1.000  H
  C337     1.0000 0.70049  0.59105  0.20455  Biso   1.000  C
  H186     1.0000 0.14857  0.83518  0.20346  Biso   1.000  H
  H187     1.0000 0.14862  0.83526  0.20346  Biso   1.000  H
  C338     1.0000 0.31920  0.91473  0.20414  Biso   1.000  C
  C339     1.0000 0.40897  0.10948  0.20455  Biso   1.000  C
  H188     1.0000 0.30605  0.17582  0.20417  Biso   1.000  H
  C340     1.0000 0.52445  0.41250  0.22659  Biso   1.000  C
  H189     1.0000 0.56430  0.39281  0.24236  Biso   1.000  H
  C341     1.0000 0.39064  0.47424  0.22528  Biso   1.000  C
  H190     1.0000 0.33426  0.49513  0.24037  Biso   1.000  H
  H191     1.0000 0.33418  0.49513  0.24037  Biso   1.000  H
  C342     1.0000 0.52570  0.91627  0.22528  Biso   1.000  C
  C343     1.0000 0.52574  0.91635  0.22528  Biso   1.000  C
  C344     1.0000 0.52563  0.91627  0.22528  Biso   1.000  C
  C345     1.0000 0.52567  0.91635  0.22528  Biso   1.000  C
  H192     1.0000 0.50480  0.83901  0.24037  Biso   1.000  H
  C346     1.0000 0.58744  0.11196  0.22659  Biso   1.000  C
  C347     1.0000 0.58748  0.11204  0.22659  Biso   1.000  C
  C348     1.0000 0.58736  0.11196  0.22659  Biso   1.000  C
  H193     1.0000 0.60715  0.17147  0.24236  Biso   1.000  H
  H194     1.0000 0.60708  0.17147  0.24236  Biso   1.000  H
  N39      1.0000 0.59880  0.58381  0.20461  Biso   1.000  N
  H195     1.0000 0.52505  0.67675  0.20406  Biso   1.000  H
  H196     1.0000 0.52494  0.67666  0.20406  Biso   1.000  H
  H197     1.0000 0.70361  0.52403  0.20477  Biso   1.000  H
  H198     1.0000 0.32324  0.84822  0.20406  Biso   1.000  H
  N40      1.0000 0.41616  0.01501  0.20461  Biso   1.000  N
  H199     1.0000 0.47592  0.17957  0.20477  Biso   1.000  H
  C349     1.0000 0.46251  0.44414  0.21969  Biso   1.000  C
  H200     1.0000 0.57215  0.38991  0.22316  Biso   1.000  H
  H201     1.0000 0.34637  0.49513  0.22096  Biso   1.000  H
  C350     1.0000 0.55584  0.01833  0.21969  Biso   1.000  C
  C351     1.0000 0.55588  0.01842  0.21969  Biso   1.000  C
  C352     1.0000 0.55576  0.01833  0.21969  Biso   1.000  C
  C353     1.0000 0.55580  0.01842  0.21969  Biso   1.000  C
  H202     1.0000 0.50480  0.85112  0.22096  Biso   1.000  H
  H203     1.0000 0.61009  0.18222  0.22316  Biso   1.000  H
  H204     1.0000 0.61001  0.18222  0.22316  Biso   1.000  H
  B19      1.0000 0.48114  0.45616  0.20647  Biso   1.000  B
  B20      1.0000 0.48119  0.45625  0.20647  Biso   1.000  B
  B21      1.0000 0.54373  0.02498  0.20647  Biso   1.000  B
  O38      1.0000 0.50968  0.37558  0.20110  Biso   1.000  O
  O39      1.0000 0.50972  0.37567  0.20110  Biso   1.000  O
  O40      1.0000 0.39202  0.45676  0.19954  Biso   1.000  O
  O41      1.0000 0.54321  0.93520  0.19954  Biso   1.000  O
  O42      1.0000 0.54314  0.93520  0.19954  Biso   1.000  O
  O43      1.0000 0.62437  0.13413  0.20110  Biso   1.000  O
  O44      1.0000 0.62425  0.13404  0.20110  Biso   1.000  O
  C354     1.0000 0.47047  0.36569  0.19032  Biso   1.000  C
  C355     1.0000 0.47051  0.36578  0.19032  Biso   1.000  C
  C356     1.0000 0.39913  0.41191  0.18945  Biso   1.000  C
  C357     1.0000 0.39906  0.41191  0.18945  Biso   1.000  C
  C358     1.0000 0.58797  0.98704  0.18945  Biso   1.000  C
  C359     1.0000 0.58801  0.98712  0.18945  Biso   1.000  C
  C360     1.0000 0.63422  0.10479  0.19032  Biso   1.000  C
  C361     1.0000 0.49379  0.31811  0.18123  Biso   1.000  C
  C362     1.0000 0.34806  0.40960  0.17942  Biso   1.000  C
  C363     1.0000 0.59032  0.93844  0.17942  Biso   1.000  C
  C364     1.0000 0.59021  0.93835  0.17942  Biso   1.000  C
  C365     1.0000 0.68187  0.17574  0.18123  Biso   1.000  C
  C366     1.0000 0.68176  0.17565  0.18123  Biso   1.000  C
  H205     1.0000 0.53999  0.28571  0.18197  Biso   1.000  H
  C367     1.0000 0.44644  0.31956  0.17094  Biso   1.000  C
  C368     1.0000 0.44649  0.31965  0.17094  Biso   1.000  C
  H206     1.0000 0.29834  0.43791  0.17887  Biso   1.000  H
  C369     1.0000 0.37350  0.36271  0.17007  Biso   1.000  C
  H207     1.0000 0.29827  0.43791  0.17887  Biso   1.000  H
  H208     1.0000 0.56193  0.86025  0.17887  Biso   1.000  H
  H209     1.0000 0.56198  0.86033  0.17887  Biso   1.000  H
  C370     1.0000 0.63718  0.01074  0.17007  Biso   1.000  C
  C371     1.0000 0.63723  0.01083  0.17007  Biso   1.000  C
  C372     1.0000 0.68034  0.12688  0.17094  Biso   1.000  C
  H210     1.0000 0.71420  0.25427  0.18197  Biso   1.000  H
  Cl36     1.0000 0.47935  0.26516  0.15916  Biso   1.000  Cl
  Cl37     1.0000 0.31210  0.36279  0.15721  Biso   1.000  Cl
  Cl38     1.0000 0.31203  0.36279  0.15721  Biso   1.000  Cl
  Cl39     1.0000 0.63705  0.94918  0.15721  Biso   1.000  Cl
  Cl40     1.0000 0.73477  0.21419  0.15916  Biso   1.000  Cl
  C373     1.0000 0.98922  0.36273  0.67006  Biso   1.000  C
  C374     1.0000 0.06148  0.40963  0.67943  Biso   1.000  C
  Cl41     1.0000 0.05070  0.36282  0.65721  Biso   1.000  Cl
  C375     1.0000 0.87310  0.31967  0.67094  Biso   1.000  C
  C376     1.0000 0.01279  0.41193  0.68944  Biso   1.000  C
  H211     1.0000 0.13959  0.43794  0.67887  Biso   1.000  H
  C377     1.0000 0.82426  0.31814  0.68123  Biso   1.000  C
  Cl42     1.0000 0.78582  0.26518  0.65916  Biso   1.000  Cl
  C378     1.0000 0.89516  0.36571  0.69031  Biso   1.000  C
  C379     1.0000 0.89520  0.36580  0.69031  Biso   1.000  C
  O45      1.0000 0.06475  0.45678  0.69953  Biso   1.000  O
  O46      1.0000 0.06464  0.45670  0.69953  Biso   1.000  O
  H212     1.0000 0.74566  0.28573  0.68197  Biso   1.000  H
  O47      1.0000 0.86596  0.37569  0.70111  Biso   1.000  O
  O48      1.0000 0.86584  0.37561  0.70111  Biso   1.000  O
  B22      1.0000 0.97495  0.45618  0.70648  Biso   1.000  B
  B23      1.0000 0.97500  0.45627  0.70648  Biso   1.000  B
  N41      1.0000 0.98502  0.58383  0.70462  Biso   1.000  N
  C380     1.0000 0.98164  0.44416  0.71970  Biso   1.000  C
  C381     1.0000 0.98153  0.44408  0.71970  Biso   1.000  C
  C382     1.0000 0.88799  0.41253  0.72658  Biso   1.000  C
  C383     1.0000 0.08357  0.47418  0.72527  Biso   1.000  C
  C384     1.0000 0.08361  0.47426  0.72527  Biso   1.000  C
  C385     1.0000 0.89046  0.59099  0.70456  Biso   1.000  C
  C386     1.0000 0.89058  0.59108  0.70456  Biso   1.000  C
  C387     1.0000 0.89050  0.59108  0.70456  Biso   1.000  C
  C388     1.0000 0.08526  0.68078  0.70414  Biso   1.000  C
  C389     1.0000 0.08514  0.68070  0.70414  Biso   1.000  C
  C390     1.0000 0.89405  0.41312  0.73817  Biso   1.000  C
  H213     1.0000 0.81777  0.38993  0.72317  Biso   1.000  H
  C391     1.0000 0.09095  0.47418  0.73699  Biso   1.000  C
  H214     1.0000 0.14885  0.49515  0.72097  Biso   1.000  H
  C392     1.0000 0.09107  0.47426  0.73699  Biso   1.000  C
  H215     1.0000 0.14877  0.49515  0.72097  Biso   1.000  H
  C393     1.0000 0.09099  0.47426  0.73699  Biso   1.000  C
  H216     1.0000 0.82044  0.52406  0.70477  Biso   1.000  H
  C394     1.0000 0.89212  0.69238  0.70416  Biso   1.000  C
  C395     1.0000 0.89216  0.69246  0.70416  Biso   1.000  C
  C396     1.0000 0.89205  0.69238  0.70416  Biso   1.000  C
  C397     1.0000 0.89209  0.69246  0.70416  Biso   1.000  C
  H217     1.0000 0.15167  0.67669  0.70407  Biso   1.000  H
  C398     1.0000 0.09364  0.78557  0.70373  Biso   1.000  C
  H218     1.0000 0.15171  0.67677  0.70407  Biso   1.000  H
  H219     1.0000 0.82852  0.39283  0.74237  Biso   1.000  H
  C399     1.0000 0.99585  0.44348  0.74381  Biso   1.000  C
  C400     1.0000 0.99573  0.44339  0.74381  Biso   1.000  C
  H220     1.0000 0.16096  0.49515  0.74036  Biso   1.000  H
  H221     1.0000 0.82421  0.69391  0.70417  Biso   1.000  H
  C401     1.0000 0.99496  0.79231  0.70375  Biso   1.000  C
  H222     1.0000 0.16469  0.85132  0.70347  Biso   1.000  H
  C402     1.0000 0.00410  0.44757  0.75619  Biso   1.000  C
  C403     1.0000 0.00414  0.44766  0.75619  Biso   1.000  C
  C404     1.0000 0.99863  0.90333  0.70353  Biso   1.000  C
  C405     1.0000 0.99856  0.90333  0.70353  Biso   1.000  C
  C406     1.0000 0.10596  0.51911  0.76182  Biso   1.000  C
  C407     1.0000 0.90892  0.38319  0.76302  Biso   1.000  C
  N42      1.0000 0.89816  0.90000  0.70352  Biso   1.000  N
  N43      1.0000 0.09995  0.99815  0.70352  Biso   1.000  N
  N44      1.0000 0.09983  0.99806  0.70352  Biso   1.000  N
  C408     1.0000 0.11189  0.52448  0.77341  Biso   1.000  C
  H223     1.0000 0.17139  0.56430  0.75764  Biso   1.000  H
  C409     1.0000 0.91640  0.39061  0.77472  Biso   1.000  C
  H224     1.0000 0.83904  0.33425  0.75963  Biso   1.000  H
  C410     1.0000 0.90470  0.00139  0.70353  Biso   1.000  C
  C411     1.0000 0.09664  0.09535  0.70353  Biso   1.000  C
  C412     1.0000 0.01835  0.46249  0.78031  Biso   1.000  C
  H225     1.0000 0.18213  0.57206  0.77684  Biso   1.000  H
  H226     1.0000 0.18218  0.57215  0.77684  Biso   1.000  H
  H227     1.0000 0.85110  0.34627  0.77904  Biso   1.000  H
  H228     1.0000 0.85114  0.34636  0.77904  Biso   1.000  H
  C413     1.0000 0.79735  0.00497  0.70375  Biso   1.000  C
  C414     1.0000 0.79739  0.00506  0.70375  Biso   1.000  C
  N45      1.0000 0.00184  0.10175  0.70352  Biso   1.000  N
  N46      1.0000 0.00188  0.10183  0.70352  Biso   1.000  N
  N47      1.0000 0.00177  0.10175  0.70352  Biso   1.000  N
  C415     1.0000 0.20769  0.20271  0.70375  Biso   1.000  C
  B24      1.0000 0.02488  0.48117  0.79353  Biso   1.000  B
  B25      1.0000 0.02493  0.48125  0.79353  Biso   1.000  B
  C416     1.0000 0.69190  0.90631  0.70373  Biso   1.000  C
  C417     1.0000 0.80036  0.10789  0.70416  Biso   1.000  C
  C418     1.0000 0.21445  0.30810  0.70373  Biso   1.000  C
  C419     1.0000 0.30751  0.19972  0.70416  Biso   1.000  C
  O49      1.0000 0.93529  0.39206  0.80046  Biso   1.000  O
  O50      1.0000 0.13406  0.50973  0.79890  Biso   1.000  O
  N48      1.0000 0.01497  0.59884  0.79539  Biso   1.000  N
  H229     1.0000 0.68666  0.83529  0.70347  Biso   1.000  H
  C420     1.0000 0.59554  0.91476  0.70414  Biso   1.000  C
  H230     1.0000 0.86979  0.17585  0.70417  Biso   1.000  H
  C421     1.0000 0.70052  0.10951  0.70456  Biso   1.000  C
  H231     1.0000 0.14864  0.31338  0.70347  Biso   1.000  H
  C422     1.0000 0.31919  0.40445  0.70414  Biso   1.000  C
  C423     1.0000 0.31931  0.40454  0.70414  Biso   1.000  C
  C424     1.0000 0.31924  0.40454  0.70414  Biso   1.000  C
  C425     1.0000 0.40894  0.29949  0.70456  Biso   1.000  C
  H232     1.0000 0.30604  0.13031  0.70417  Biso   1.000  H
  C426     1.0000 0.98708  0.39905  0.81055  Biso   1.000  C
  C427     1.0000 0.98712  0.39914  0.81055  Biso   1.000  C
  C428     1.0000 0.10477  0.47051  0.80968  Biso   1.000  C
  C429     1.0000 0.10470  0.47051  0.80968  Biso   1.000  C
  C430     1.0000 0.10943  0.70048  0.79545  Biso   1.000  C
  C431     1.0000 0.91473  0.59551  0.79586  Biso   1.000  C
  C432     1.0000 0.91480  0.59551  0.79586  Biso   1.000  C
  H233     1.0000 0.52499  0.84825  0.70407  Biso   1.000  H
  N49      1.0000 0.59886  0.01503  0.70462  Biso   1.000  N
  H234     1.0000 0.70367  0.17960  0.70477  Biso   1.000  H
  H235     1.0000 0.32322  0.47497  0.70407  Biso   1.000  H
  N50      1.0000 0.41616  0.40121  0.70462  Biso   1.000  N
  H236     1.0000 0.32326  0.47505  0.70407  Biso   1.000  H
  H237     1.0000 0.47593  0.29642  0.70477  Biso   1.000  H
  C433     1.0000 0.93839  0.34806  0.82058  Biso   1.000  C
  C434     1.0000 0.93844  0.34815  0.82058  Biso   1.000  C
  C435     1.0000 0.17563  0.49379  0.81877  Biso   1.000  C
  H238     1.0000 0.17949  0.70355  0.79523  Biso   1.000  H
  H239     1.0000 0.17954  0.70363  0.79523  Biso   1.000  H
  C436     1.0000 0.10781  0.80033  0.79584  Biso   1.000  C
  H240     1.0000 0.84823  0.52500  0.79594  Biso   1.000  H
  C437     1.0000 0.90638  0.69195  0.79627  Biso   1.000  C
  B26      1.0000 0.48127  0.02501  0.70648  Biso   1.000  B
  B27      1.0000 0.54370  0.51880  0.70648  Biso   1.000  B
  H241     1.0000 0.86037  0.29835  0.82113  Biso   1.000  H
  C438     1.0000 0.01069  0.37347  0.82993  Biso   1.000  C
  C439     1.0000 0.01073  0.37356  0.82993  Biso   1.000  C
  C440     1.0000 0.12679  0.44646  0.82906  Biso   1.000  C
  H242     1.0000 0.25427  0.54000  0.81803  Biso   1.000  H
  C441     1.0000 0.12691  0.44655  0.82906  Biso   1.000  C
  H243     1.0000 0.25420  0.54000  0.81803  Biso   1.000  H
  C442     1.0000 0.12683  0.44655  0.82906  Biso   1.000  C
  C443     1.0000 0.00489  0.79726  0.79625  Biso   1.000  C
  H244     1.0000 0.17575  0.86973  0.79583  Biso   1.000  H
  C444     1.0000 0.00493  0.79734  0.79625  Biso   1.000  C
  H245     1.0000 0.83524  0.68658  0.79654  Biso   1.000  H
  O51      1.0000 0.39199  0.93522  0.69953  Biso   1.000  O
  O52      1.0000 0.39207  0.93522  0.69953  Biso   1.000  O
  C445     1.0000 0.46251  0.01836  0.71970  Biso   1.000  C
  O53      1.0000 0.50977  0.13415  0.70111  Biso   1.000  O
  C446     1.0000 0.46255  0.01844  0.71970  Biso   1.000  C
  C447     1.0000 0.55584  0.53747  0.71970  Biso   1.000  C
  O54      1.0000 0.62435  0.49032  0.70111  Biso   1.000  O
  O55      1.0000 0.54325  0.60799  0.69953  Biso   1.000  O
  C448     1.0000 0.55588  0.53755  0.71970  Biso   1.000  C
  Cl43     1.0000 0.94920  0.31208  0.84279  Biso   1.000  Cl
  Cl44     1.0000 0.94928  0.31208  0.84279  Biso   1.000  Cl
  Cl45     1.0000 0.21414  0.47938  0.84084  Biso   1.000  Cl
  C449     1.0000 0.00131  0.90469  0.79647  Biso   1.000  C
  C450     1.0000 0.39913  0.98715  0.68944  Biso   1.000  C
  C451     1.0000 0.39069  0.91638  0.72527  Biso   1.000  C
  C452     1.0000 0.39062  0.91638  0.72527  Biso   1.000  C
  C453     1.0000 0.52458  0.11207  0.72658  Biso   1.000  C
  C454     1.0000 0.47052  0.10482  0.69031  Biso   1.000  C
  C455     1.0000 0.52569  0.60935  0.72527  Biso   1.000  C
  C456     1.0000 0.58739  0.47548  0.72658  Biso   1.000  C
  C457     1.0000 0.52573  0.60944  0.72527  Biso   1.000  C
  C458     1.0000 0.63429  0.52954  0.69031  Biso   1.000  C
  C459     1.0000 0.63417  0.52945  0.69031  Biso   1.000  C
  C460     1.0000 0.58800  0.60091  0.68944  Biso   1.000  C
  N51      1.0000 0.90007  0.89821  0.79649  Biso   1.000  N
  N52      1.0000 0.90000  0.89821  0.79649  Biso   1.000  N
  N53      1.0000 0.10175  0.00190  0.79649  Biso   1.000  N
  C461     1.0000 0.34813  0.93846  0.67943  Biso   1.000  C
  H246     1.0000 0.34634  0.85115  0.72097  Biso   1.000  H
  C462     1.0000 0.38322  0.90896  0.73699  Biso   1.000  C
  C463     1.0000 0.51911  0.10601  0.73817  Biso   1.000  C
  H247     1.0000 0.57214  0.18224  0.72317  Biso   1.000  H
  C464     1.0000 0.49388  0.17576  0.68123  Biso   1.000  C
  H248     1.0000 0.61005  0.42790  0.72317  Biso   1.000  H
  C465     1.0000 0.58687  0.48094  0.73817  Biso   1.000  C
  C466     1.0000 0.52571  0.61677  0.73699  Biso   1.000  C
  C467     1.0000 0.52575  0.61685  0.73699  Biso   1.000  C
  H249     1.0000 0.50488  0.65369  0.72097  Biso   1.000  H
  C468     1.0000 0.68187  0.50626  0.68123  Biso   1.000  C
  C469     1.0000 0.59039  0.65190  0.67943  Biso   1.000  C
  C470     1.0000 0.90329  0.99857  0.79647  Biso   1.000  C
  C471     1.0000 0.09532  0.09672  0.79647  Biso   1.000  C
  C472     1.0000 0.09521  0.09663  0.79647  Biso   1.000  C
  H250     1.0000 0.29837  0.86036  0.67887  Biso   1.000  H
  H251     1.0000 0.29825  0.86027  0.67887  Biso   1.000  H
  C473     1.0000 0.37361  0.01085  0.67006  Biso   1.000  C
  C474     1.0000 0.37350  0.01077  0.67006  Biso   1.000  C
  H252     1.0000 0.33423  0.83904  0.74036  Biso   1.000  H
  C475     1.0000 0.44768  0.00420  0.74381  Biso   1.000  C
  H253     1.0000 0.56433  0.17150  0.74237  Biso   1.000  H
  H254     1.0000 0.56441  0.17150  0.74237  Biso   1.000  H
  C476     1.0000 0.44656  0.12690  0.67094  Biso   1.000  C
  H255     1.0000 0.54001  0.25429  0.68197  Biso   1.000  H
  H256     1.0000 0.60718  0.43574  0.74237  Biso   1.000  H
  C477     1.0000 0.55658  0.55239  0.74381  Biso   1.000  C
  H257     1.0000 0.60706  0.43566  0.74237  Biso   1.000  H
  H258     1.0000 0.50488  0.66580  0.74036  Biso   1.000  H
  C478     1.0000 0.68031  0.55350  0.67094  Biso   1.000  C
  H259     1.0000 0.71425  0.45996  0.68197  Biso   1.000  H
  C479     1.0000 0.68038  0.55350  0.67094  Biso   1.000  C
  H260     1.0000 0.71429  0.46005  0.68197  Biso   1.000  H
  H261     1.0000 0.71418  0.45996  0.68197  Biso   1.000  H
  H262     1.0000 0.71422  0.46005  0.68197  Biso   1.000  H
  H263     1.0000 0.56204  0.70170  0.67887  Biso   1.000  H
  C480     1.0000 0.63720  0.62649  0.67006  Biso   1.000  C
  C481     1.0000 0.79236  0.99499  0.79625  Biso   1.000  C
  N54      1.0000 0.99814  0.09996  0.79649  Biso   1.000  N
  C482     1.0000 0.20263  0.20765  0.79625  Biso   1.000  C
  Cl46     1.0000 0.31207  0.94920  0.65721  Biso   1.000  Cl
  C483     1.0000 0.44350  0.99585  0.75619  Biso   1.000  C
  Cl47     1.0000 0.47943  0.21422  0.65916  Biso   1.000  Cl
  Cl48     1.0000 0.47932  0.21413  0.65916  Biso   1.000  Cl
  C484     1.0000 0.55232  0.55657  0.75619  Biso   1.000  C
  Cl49     1.0000 0.73479  0.52067  0.65916  Biso   1.000  Cl
  Cl50     1.0000 0.63722  0.68797  0.65721  Biso   1.000  Cl
  Cl51     1.0000 0.63715  0.68797  0.65721  Biso   1.000  Cl
  C485     1.0000 0.69246  0.89207  0.79584  Biso   1.000  C
  C486     1.0000 0.78561  0.09373  0.79627  Biso   1.000  C
  C487     1.0000 0.30809  0.21447  0.79627  Biso   1.000  C
  C488     1.0000 0.19972  0.30759  0.79584  Biso   1.000  C
  C489     1.0000 0.19965  0.30759  0.79584  Biso   1.000  C
  C490     1.0000 0.41320  0.89404  0.76182  Biso   1.000  C
  C491     1.0000 0.41308  0.89395  0.76182  Biso   1.000  C
  C492     1.0000 0.47429  0.09109  0.76302  Biso   1.000  C
  C493     1.0000 0.48084  0.58684  0.76182  Biso   1.000  C
  C494     1.0000 0.61676  0.52579  0.76302  Biso   1.000  C
  C495     1.0000 0.61683  0.52579  0.76302  Biso   1.000  C
  C496     1.0000 0.48088  0.58692  0.76182  Biso   1.000  C
  H264     1.0000 0.69396  0.82420  0.79583  Biso   1.000  H
  C497     1.0000 0.59100  0.89045  0.79545  Biso   1.000  C
  C498     1.0000 0.59104  0.89054  0.79545  Biso   1.000  C
  H265     1.0000 0.85140  0.16476  0.79654  Biso   1.000  H
  C499     1.0000 0.68081  0.08529  0.79586  Biso   1.000  C
  H266     1.0000 0.31340  0.14873  0.79654  Biso   1.000  H
  C500     1.0000 0.40443  0.31927  0.79586  Biso   1.000  C
  C501     1.0000 0.29945  0.40897  0.79545  Biso   1.000  C
  H267     1.0000 0.13028  0.30605  0.79583  Biso   1.000  H
  C502     1.0000 0.29952  0.40897  0.79545  Biso   1.000  C
  C503     1.0000 0.41253  0.88798  0.77341  Biso   1.000  C
  H268     1.0000 0.39282  0.82846  0.75764  Biso   1.000  H
  H269     1.0000 0.39293  0.82855  0.75764  Biso   1.000  H
  H270     1.0000 0.39286  0.82855  0.75764  Biso   1.000  H
  C504     1.0000 0.47427  0.08367  0.77472  Biso   1.000  C
  H271     1.0000 0.49521  0.16101  0.75963  Biso   1.000  H
  C505     1.0000 0.47434  0.08367  0.77472  Biso   1.000  C
  H272     1.0000 0.43567  0.60713  0.75764  Biso   1.000  H
  C506     1.0000 0.47549  0.58752  0.77341  Biso   1.000  C
  H273     1.0000 0.43572  0.60722  0.75764  Biso   1.000  H
  H274     1.0000 0.66571  0.50481  0.75963  Biso   1.000  H
  C507     1.0000 0.60937  0.52579  0.77472  Biso   1.000  C
  H275     1.0000 0.66576  0.50490  0.75963  Biso   1.000  H
  N55      1.0000 0.58385  0.98502  0.79539  Biso   1.000  N
  H276     1.0000 0.52409  0.82045  0.79523  Biso   1.000  H
  H277     1.0000 0.67677  0.15180  0.79594  Biso   1.000  H
  H278     1.0000 0.47496  0.32328  0.79594  Biso   1.000  H
  N56      1.0000 0.40117  0.41613  0.79539  Biso   1.000  N
  N57      1.0000 0.40121  0.41622  0.79539  Biso   1.000  N
  H279     1.0000 0.29641  0.47599  0.79523  Biso   1.000  H
  C508     1.0000 0.44421  0.98161  0.78031  Biso   1.000  C
  H280     1.0000 0.38993  0.81781  0.77684  Biso   1.000  H
  H281     1.0000 0.49522  0.14890  0.77904  Biso   1.000  H
  C509     1.0000 0.53751  0.55589  0.78031  Biso   1.000  C
  C510     1.0000 0.53743  0.55589  0.78031  Biso   1.000  C
  H282     1.0000 0.42786  0.61012  0.77684  Biso   1.000  H
  H283     1.0000 0.65368  0.50481  0.77904  Biso   1.000  H
  H284     1.0000 0.65372  0.50490  0.77904  Biso   1.000  H
  H285     1.0000 0.65360  0.50481  0.77904  Biso   1.000  H
  H286     1.0000 0.65364  0.50490  0.77904  Biso   1.000  H
  B28      1.0000 0.45624  0.97496  0.79353  Biso   1.000  B
  B29      1.0000 0.45628  0.97504  0.79353  Biso   1.000  B
  B30      1.0000 0.51882  0.54378  0.79353  Biso   1.000  B
  O56      1.0000 0.37565  0.86590  0.79890  Biso   1.000  O
  O57      1.0000 0.45687  0.06483  0.80046  Biso   1.000  O
  O58      1.0000 0.45680  0.06483  0.80046  Biso   1.000  O
  O59      1.0000 0.49029  0.62436  0.79890  Biso   1.000  O
  O60      1.0000 0.49022  0.62436  0.79890  Biso   1.000  O
  O61      1.0000 0.60792  0.54327  0.80046  Biso   1.000  O
  C511     1.0000 0.36580  0.89523  0.80968  Biso   1.000  C
  C512     1.0000 0.36568  0.89514  0.80968  Biso   1.000  C
  C513     1.0000 0.41200  0.01290  0.81055  Biso   1.000  C
  C514     1.0000 0.52943  0.63425  0.80968  Biso   1.000  C
  C515     1.0000 0.60084  0.58803  0.81055  Biso   1.000  C
  C516     1.0000 0.60088  0.58812  0.81055  Biso   1.000  C
  C517     1.0000 0.31814  0.82429  0.81877  Biso   1.000  C
  C518     1.0000 0.40969  0.06159  0.82058  Biso   1.000  C
  C519     1.0000 0.50622  0.68191  0.81877  Biso   1.000  C
  C520     1.0000 0.50610  0.68183  0.81877  Biso   1.000  C
  C521     1.0000 0.65184  0.59034  0.82058  Biso   1.000  C
  C522     1.0000 0.65188  0.59042  0.82058  Biso   1.000  C
  C523     1.0000 0.31968  0.87315  0.82906  Biso   1.000  C
  H287     1.0000 0.28581  0.74575  0.81803  Biso   1.000  H
  H288     1.0000 0.28570  0.74567  0.81803  Biso   1.000  H
  C524     1.0000 0.36271  0.98920  0.82993  Biso   1.000  C
  H289     1.0000 0.43796  0.13969  0.82113  Biso   1.000  H
  C525     1.0000 0.55353  0.68038  0.82906  Biso   1.000  C
  H290     1.0000 0.46002  0.71432  0.81803  Biso   1.000  H
  H291     1.0000 0.45991  0.71423  0.81803  Biso   1.000  H
  H292     1.0000 0.70163  0.56203  0.82113  Biso   1.000  H
  C526     1.0000 0.62647  0.63723  0.82993  Biso   1.000  C
  H293     1.0000 0.70167  0.56211  0.82113  Biso   1.000  H
  C527     1.0000 0.62652  0.63732  0.82993  Biso   1.000  C
  Cl52     1.0000 0.26516  0.78583  0.84084  Biso   1.000  Cl
  Cl53     1.0000 0.36289  0.05084  0.84279  Biso   1.000  Cl
  Cl54     1.0000 0.52062  0.73478  0.84084  Biso   1.000  Cl
  Cl55     1.0000 0.52066  0.73486  0.84084  Biso   1.000  Cl
  Cl56     1.0000 0.68787  0.63715  0.84279  Biso   1.000  Cl
  Cl57     1.0000 0.68791  0.63723  0.84279  Biso   1.000  Cl
  C528     1.0000 0.02947  0.32257  0.16327  Biso   1.000  C
  C529     1.0000 0.07633  0.39488  0.15390  Biso   1.000  C
  Cl58     1.0000 0.02949  0.38405  0.17612  Biso   1.000  Cl
  C530     1.0000 0.98632  0.20643  0.16240  Biso   1.000  C
  C531     1.0000 0.07865  0.34619  0.14389  Biso   1.000  C
  H294     1.0000 0.10468  0.47298  0.15447  Biso   1.000  H
  C532     1.0000 0.98483  0.15766  0.15211  Biso   1.000  C
  Cl59     1.0000 0.93193  0.11920  0.17418  Biso   1.000  Cl
  C533     1.0000 0.03248  0.22860  0.14302  Biso   1.000  C
  O62      1.0000 0.12340  0.39803  0.13380  Biso   1.000  O
  H295     1.0000 0.95246  0.07904  0.15137  Biso   1.000  H
  O63      1.0000 0.04233  0.19927  0.13222  Biso   1.000  O
  B31      1.0000 0.12293  0.30833  0.12685  Biso   1.000  B
  C534     1.0000 0.11082  0.31498  0.11363  Biso   1.000  C
  N58      1.0000 0.25054  0.31839  0.12871  Biso   1.000  N
  C535     1.0000 0.07922  0.22136  0.10675  Biso   1.000  C
  C536     1.0000 0.14091  0.41696  0.10806  Biso   1.000  C
  C537     1.0000 0.34745  0.41858  0.12920  Biso   1.000  C
  C538     1.0000 0.25768  0.22383  0.12877  Biso   1.000  C
  H296     1.0000 0.05661  0.15118  0.11016  Biso   1.000  H
  C539     1.0000 0.07984  0.22732  0.09516  Biso   1.000  C
  C540     1.0000 0.14093  0.42438  0.09634  Biso   1.000  C
  H297     1.0000 0.16186  0.48219  0.11236  Biso   1.000  H
  C541     1.0000 0.45221  0.42694  0.12960  Biso   1.000  C
  H298     1.0000 0.34342  0.48509  0.12926  Biso   1.000  H
  H299     1.0000 0.19074  0.15374  0.12857  Biso   1.000  H
  C542     1.0000 0.35914  0.22545  0.12918  Biso   1.000  C
  H300     1.0000 0.05950  0.16184  0.09096  Biso   1.000  H
  C543     1.0000 0.11014  0.32913  0.08953  Biso   1.000  C
  H301     1.0000 0.16182  0.49421  0.09297  Biso   1.000  H
  C544     1.0000 0.45904  0.32837  0.12959  Biso   1.000  C
  H302     1.0000 0.51804  0.49805  0.12986  Biso   1.000  H
  H303     1.0000 0.36065  0.15758  0.12916  Biso   1.000  H
  C545     1.0000 0.11432  0.33749  0.07714  Biso   1.000  C
  C546     1.0000 0.57005  0.33195  0.12981  Biso   1.000  C
  C547     1.0000 0.18583  0.43930  0.07151  Biso   1.000  C
  C548     1.0000 0.04991  0.24233  0.07032  Biso   1.000  C
  N59      1.0000 0.56676  0.23159  0.12981  Biso   1.000  N
  N60      1.0000 0.66478  0.43325  0.12981  Biso   1.000  N
  C549     1.0000 0.19118  0.44527  0.05992  Biso   1.000  C
  H304     1.0000 0.23098  0.50479  0.07570  Biso   1.000  H
  H305     1.0000 0.00092  0.17241  0.07370  Biso   1.000  H
  C550     1.0000 0.05726  0.24966  0.05861  Biso   1.000  C
  C551     1.0000 0.66799  0.23807  0.12981  Biso   1.000  C
  C552     1.0000 0.76193  0.42992  0.12981  Biso   1.000  C
  C553     1.0000 0.12920  0.35173  0.05303  Biso   1.000  C
  H306     1.0000 0.23879  0.51553  0.05650  Biso   1.000  H
  H307     1.0000 0.01303  0.18452  0.05430  Biso   1.000  H
  N61      1.0000 0.76847  0.33519  0.12981  Biso   1.000  N
  C554     1.0000 0.67158  0.13063  0.12959  Biso   1.000  C
  C555     1.0000 0.86927  0.54094  0.12959  Biso   1.000  C
  B32      1.0000 0.14791  0.35830  0.03981  Biso   1.000  B
  C556     1.0000 0.57302  0.02524  0.12960  Biso   1.000  C
  C557     1.0000 0.77450  0.13370  0.12918  Biso   1.000  C
  C558     1.0000 0.97474  0.54776  0.12960  Biso   1.000  C
  C559     1.0000 0.86629  0.64087  0.12918  Biso   1.000  C
  O64      1.0000 0.17637  0.46735  0.03444  Biso   1.000  O
  O65      1.0000 0.05868  0.26859  0.03287  Biso   1.000  O
  N62      1.0000 0.26551  0.34832  0.03795  Biso   1.000  N
  H308     1.0000 0.50193  0.01995  0.12986  Biso   1.000  H
  C560     1.0000 0.58137  0.92880  0.12920  Biso   1.000  C
  C561     1.0000 0.77612  0.03385  0.12877  Biso   1.000  C
  H309     1.0000 0.84239  0.20302  0.12916  Biso   1.000  H
  H310     1.0000 0.98000  0.48194  0.12986  Biso   1.000  H
  C562     1.0000 0.07115  0.65256  0.12920  Biso   1.000  C
  C563     1.0000 0.96609  0.74226  0.12877  Biso   1.000  C
  H311     1.0000 0.79693  0.63934  0.12916  Biso   1.000  H
  C564     1.0000 0.13723  0.43811  0.02365  Biso   1.000  C
  C565     1.0000 0.06581  0.32052  0.02278  Biso   1.000  C
  C566     1.0000 0.26223  0.24813  0.03747  Biso   1.000  C
  C567     1.0000 0.36717  0.44280  0.03789  Biso   1.000  C
  H312     1.0000 0.51488  0.85828  0.12926  Biso   1.000  H
  N63      1.0000 0.68157  0.93204  0.12871  Biso   1.000  N
  H313     1.0000 0.84622  0.03701  0.12857  Biso   1.000  H
  H314     1.0000 0.14160  0.65656  0.12926  Biso   1.000  H
  N64      1.0000 0.06781  0.74942  0.12871  Biso   1.000  N
  H315     1.0000 0.96305  0.80928  0.12857  Biso   1.000  H
  C568     1.0000 0.16048  0.50897  0.01456  Biso   1.000  C
  C569     1.0000 0.01481  0.27183  0.01276  Biso   1.000  C
  C570     1.0000 0.35858  0.23969  0.03706  Biso   1.000  C
  H316     1.0000 0.19168  0.18162  0.03740  Biso   1.000  H
  H317     1.0000 0.37031  0.51289  0.03810  Biso   1.000  H
  C571     1.0000 0.46701  0.44118  0.03749  Biso   1.000  C
  B33      1.0000 0.69153  0.81446  0.12685  Biso   1.000  B
  B34      1.0000 0.18540  0.87707  0.12685  Biso   1.000  B
  C572     1.0000 0.11320  0.46019  0.00427  Biso   1.000  C
  H318     1.0000 0.20673  0.58758  0.01530  Biso   1.000  H
  C573     1.0000 0.04022  0.34406  0.00340  Biso   1.000  C
  H319     1.0000 0.96505  0.19373  0.01220  Biso   1.000  H
  C574     1.0000 0.46399  0.33826  0.03708  Biso   1.000  C
  H320     1.0000 0.35330  0.16858  0.03680  Biso   1.000  H
  H321     1.0000 0.53639  0.50905  0.03750  Biso   1.000  H
  C575     1.0000 0.68500  0.79578  0.11363  Biso   1.000  C
  O66      1.0000 0.80070  0.84302  0.13222  Biso   1.000  O
  O67      1.0000 0.60189  0.72527  0.13380  Biso   1.000  O
  C576     1.0000 0.20415  0.88918  0.11363  Biso   1.000  C
  O68      1.0000 0.15694  0.95765  0.13222  Biso   1.000  O
  O69      1.0000 0.27464  0.87656  0.13380  Biso   1.000  O
  Cl60     1.0000 0.14608  0.54751  0.99249  Biso   1.000  Cl
  Cl61     1.0000 0.97876  0.28258  0.99054  Biso   1.000  Cl
  C577     1.0000 0.57141  0.33468  0.03686  Biso   1.000  C
  C578     1.0000 0.77854  0.85777  0.10675  Biso   1.000  C
  C579     1.0000 0.58297  0.72390  0.10806  Biso   1.000  C
  C580     1.0000 0.77142  0.80380  0.14302  Biso   1.000  C
  C581     1.0000 0.65376  0.73243  0.14389  Biso   1.000  C
  C582     1.0000 0.14209  0.92072  0.10675  Biso   1.000  C
  C583     1.0000 0.27602  0.85908  0.10806  Biso   1.000  C
  C584     1.0000 0.19607  0.96754  0.14302  Biso   1.000  C
  C585     1.0000 0.26748  0.92132  0.14389  Biso   1.000  C
  N65      1.0000 0.56485  0.23338  0.03685  Biso   1.000  N
  N66      1.0000 0.66853  0.43512  0.03685  Biso   1.000  N
  H322     1.0000 0.84878  0.90535  0.11016  Biso   1.000  H
  C586     1.0000 0.77260  0.85240  0.09516  Biso   1.000  C
  C587     1.0000 0.57557  0.71648  0.09634  Biso   1.000  C
  H323     1.0000 0.51775  0.67956  0.11236  Biso   1.000  H
  C588     1.0000 0.84228  0.82708  0.15211  Biso   1.000  C
  C589     1.0000 0.60504  0.68135  0.15390  Biso   1.000  C
  H324     1.0000 0.09446  0.94332  0.11016  Biso   1.000  H
  C590     1.0000 0.14748  0.92013  0.09516  Biso   1.000  C
  C591     1.0000 0.28340  0.85908  0.09634  Biso   1.000  C
  H325     1.0000 0.32029  0.83819  0.11236  Biso   1.000  H
  C592     1.0000 0.17286  0.01520  0.15211  Biso   1.000  C
  C593     1.0000 0.31848  0.92362  0.15390  Biso   1.000  C
  C594     1.0000 0.66532  0.23670  0.03686  Biso   1.000  C
  C595     1.0000 0.76324  0.42856  0.03686  Biso   1.000  C
  H326     1.0000 0.83810  0.89759  0.09096  Biso   1.000  H
  C596     1.0000 0.67074  0.78086  0.08953  Biso   1.000  C
  H327     1.0000 0.50564  0.66745  0.09297  Biso   1.000  H
  C597     1.0000 0.79344  0.77975  0.16240  Biso   1.000  C
  H328     1.0000 0.92084  0.87329  0.15137  Biso   1.000  H
  H329     1.0000 0.52697  0.63156  0.15447  Biso   1.000  H
  C598     1.0000 0.67734  0.70676  0.16327  Biso   1.000  C
  H330     1.0000 0.10232  0.94042  0.09096  Biso   1.000  H
  C599     1.0000 0.21904  0.88986  0.08953  Biso   1.000  C
  H331     1.0000 0.33240  0.83819  0.09297  Biso   1.000  H
  C600     1.0000 0.22014  0.01375  0.16240  Biso   1.000  C
  H332     1.0000 0.12667  0.04760  0.15137  Biso   1.000  H
  H333     1.0000 0.36827  0.89531  0.15447  Biso   1.000  H
  C601     1.0000 0.29312  0.97052  0.16327  Biso   1.000  C
  C602     1.0000 0.66165  0.12569  0.03708  Biso   1.000  C
  N67      1.0000 0.76663  0.33152  0.03685  Biso   1.000  N
  C603     1.0000 0.87426  0.53600  0.03708  Biso   1.000  C
  C604     1.0000 0.66245  0.77668  0.07714  Biso   1.000  C
  Cl62     1.0000 0.88074  0.81258  0.17418  Biso   1.000  Cl
  Cl63     1.0000 0.61585  0.64537  0.17612  Biso   1.000  Cl
  C605     1.0000 0.22315  0.88568  0.07714  Biso   1.000  C
  Cl64     1.0000 0.18730  0.06815  0.17418  Biso   1.000  Cl
  Cl65     1.0000 0.35451  0.97044  0.17612  Biso   1.000  Cl
  C606     1.0000 0.76029  0.11886  0.03706  Biso   1.000  C
  C607     1.0000 0.55878  0.02584  0.03749  Biso   1.000  C
  C608     1.0000 0.88110  0.64139  0.03706  Biso   1.000  C
  C609     1.0000 0.97416  0.53301  0.03749  Biso   1.000  C
  C610     1.0000 0.56062  0.74641  0.07151  Biso   1.000  C
  C611     1.0000 0.75764  0.80755  0.07032  Biso   1.000  C
  C612     1.0000 0.25347  0.81414  0.07151  Biso   1.000  C
  C613     1.0000 0.19235  0.95006  0.07032  Biso   1.000  C
  H334     1.0000 0.83138  0.18469  0.03680  Biso   1.000  H
  C614     1.0000 0.75190  0.01407  0.03747  Biso   1.000  C
  H335     1.0000 0.49090  0.02729  0.03750  Biso   1.000  H
  C615     1.0000 0.55710  0.92428  0.03789  Biso   1.000  C
  H336     1.0000 0.81529  0.64667  0.03680  Biso   1.000  H
  C616     1.0000 0.98588  0.73782  0.03747  Biso   1.000  C
  H337     1.0000 0.97268  0.46360  0.03750  Biso   1.000  H
  C617     1.0000 0.07558  0.63277  0.03789  Biso   1.000  C
  C618     1.0000 0.55464  0.74582  0.05992  Biso   1.000  C
  H338     1.0000 0.49517  0.72612  0.07570  Biso   1.000  H
  H339     1.0000 0.82753  0.82844  0.07370  Biso   1.000  H
  C619     1.0000 0.75025  0.80755  0.05861  Biso   1.000  C
  C620     1.0000 0.25404  0.80877  0.05992  Biso   1.000  C
  H340     1.0000 0.27378  0.76895  0.07570  Biso   1.000  H
  H341     1.0000 0.17145  0.99909  0.07370  Biso   1.000  H
  C621     1.0000 0.19234  0.94264  0.05861  Biso   1.000  C
  H342     1.0000 0.81835  0.01006  0.03740  Biso   1.000  H
  N68      1.0000 0.65166  0.91712  0.03795  Biso   1.000  N
  H343     1.0000 0.48708  0.85735  0.03810  Biso   1.000  H
  H344     1.0000 0.98986  0.80826  0.03740  Biso   1.000  H
  N69      1.0000 0.08280  0.73450  0.03795  Biso   1.000  N
  H345     1.0000 0.14257  0.62970  0.03810  Biso   1.000  H
  C622     1.0000 0.64829  0.77745  0.05303  Biso   1.000  C
  H346     1.0000 0.48441  0.72322  0.05650  Biso   1.000  H
  H347     1.0000 0.81542  0.82844  0.05430  Biso   1.000  H
  C623     1.0000 0.22249  0.87076  0.05303  Biso   1.000  C
  H348     1.0000 0.27670  0.76119  0.05650  Biso   1.000  H
  H349     1.0000 0.17145  0.98698  0.05430  Biso   1.000  H
  B35      1.0000 0.64164  0.78956  0.03981  Biso   1.000  B
  B36      1.0000 0.21034  0.85208  0.03981  Biso   1.000  B
  O70      1.0000 0.53256  0.70889  0.03444  Biso   1.000  O
  O71      1.0000 0.73135  0.78998  0.03287  Biso   1.000  O
  O72      1.0000 0.29099  0.82360  0.03444  Biso   1.000  O
  O73      1.0000 0.20989  0.94127  0.03287  Biso   1.000  O
  C624     1.0000 0.56180  0.69900  0.02365  Biso   1.000  C
  C625     1.0000 0.67943  0.74522  0.02278  Biso   1.000  C
  C626     1.0000 0.30089  0.86274  0.02365  Biso   1.000  C
  C627     1.0000 0.25465  0.93420  0.02278  Biso   1.000  C
  C628     1.0000 0.49098  0.65142  0.01456  Biso   1.000  C
  C629     1.0000 0.72813  0.74292  0.01276  Biso   1.000  C
  C630     1.0000 0.34847  0.83946  0.01456  Biso   1.000  C
  C631     1.0000 0.25696  0.98519  0.01276  Biso   1.000  C
  C632     1.0000 0.53974  0.65296  0.00427  Biso   1.000  C
  H350     1.0000 0.41238  0.61902  0.01530  Biso   1.000  H
  H351     1.0000 0.80623  0.77123  0.01220  Biso   1.000  H
  C633     1.0000 0.65587  0.69602  0.00340  Biso   1.000  C
  C634     1.0000 0.34695  0.88679  0.00427  Biso   1.000  C
  H352     1.0000 0.38082  0.79325  0.01530  Biso   1.000  H
  C635     1.0000 0.30384  0.95978  0.00340  Biso   1.000  C
  H353     1.0000 0.22873  0.03507  0.01220  Biso   1.000  H
  Cl66     1.0000 0.45246  0.59847  0.99249  Biso   1.000  Cl
  Cl67     1.0000 0.71735  0.69610  0.99054  Biso   1.000  Cl
  Cl68     1.0000 0.40143  0.85396  0.99249  Biso   1.000  Cl
  Cl69     1.0000 0.30379  0.02126  0.99054  Biso   1.000  Cl
  C636     1.0000 0.97054  0.67746  0.83673  Biso   1.000  C
  C637     1.0000 0.92368  0.60515  0.84610  Biso   1.000  C
  Cl70     1.0000 0.97048  0.61589  0.82388  Biso   1.000  Cl
  C638     1.0000 0.01365  0.79350  0.83760  Biso   1.000  C
  C639     1.0000 0.92136  0.65384  0.85611  Biso   1.000  C
  H354     1.0000 0.89533  0.52704  0.84553  Biso   1.000  H
  C640     1.0000 0.01514  0.84228  0.84789  Biso   1.000  C
  Cl71     1.0000 0.06809  0.88082  0.82582  Biso   1.000  Cl
  C641     1.0000 0.96753  0.77142  0.85698  Biso   1.000  C
  O74      1.0000 0.87657  0.60191  0.86620  Biso   1.000  O
  H355     1.0000 0.04751  0.92090  0.84863  Biso   1.000  H
  O75      1.0000 0.95768  0.80075  0.86778  Biso   1.000  O
  B37      1.0000 0.87704  0.69161  0.87315  Biso   1.000  B
  C642     1.0000 0.88919  0.68504  0.88637  Biso   1.000  C
  N70      1.0000 0.74947  0.68163  0.87129  Biso   1.000  N
  C643     1.0000 0.92075  0.77858  0.89325  Biso   1.000  C
  C644     1.0000 0.85906  0.58298  0.89194  Biso   1.000  C
  C645     1.0000 0.65256  0.58144  0.87080  Biso   1.000  C
  C646     1.0000 0.74221  0.77611  0.87123  Biso   1.000  C
  H356     1.0000 0.94333  0.84884  0.88984  Biso   1.000  H
  C647     1.0000 0.92013  0.77261  0.90484  Biso   1.000  C
  C648     1.0000 0.85908  0.57564  0.90366  Biso   1.000  C
  H357     1.0000 0.83815  0.51783  0.88764  Biso   1.000  H
  C649     1.0000 0.54776  0.57300  0.87040  Biso   1.000  C
  H358     1.0000 0.65652  0.51493  0.87074  Biso   1.000  H
  H359     1.0000 0.80923  0.84620  0.87143  Biso   1.000  H
  C650     1.0000 0.64083  0.77449  0.87082  Biso   1.000  C
  H360     1.0000 0.94046  0.83810  0.90904  Biso   1.000  H
  C651     1.0000 0.88983  0.67080  0.91047  Biso   1.000  C
  H361     1.0000 0.83815  0.50573  0.90703  Biso   1.000  H
  C652     1.0000 0.54097  0.67166  0.87041  Biso   1.000  C
  H362     1.0000 0.48193  0.50189  0.87014  Biso   1.000  H
  H363     1.0000 0.63936  0.84245  0.87084  Biso   1.000  H
  C653     1.0000 0.88565  0.66245  0.92286  Biso   1.000  C
  C654     1.0000 0.42992  0.66799  0.87019  Biso   1.000  C
  C655     1.0000 0.81418  0.56072  0.92849  Biso   1.000  C
  C656     1.0000 0.95011  0.75769  0.92968  Biso   1.000  C
  N71      1.0000 0.43325  0.76844  0.87019  Biso   1.000  N
  N72      1.0000 0.33511  0.56669  0.87019  Biso   1.000  N
  C657     1.0000 0.80879  0.55467  0.94008  Biso   1.000  C
  H364     1.0000 0.76899  0.49515  0.92430  Biso   1.000  H
  H365     1.0000 0.99910  0.82761  0.92630  Biso   1.000  H
  C658     1.0000 0.94270  0.75027  0.94139  Biso   1.000  C
  C659     1.0000 0.33195  0.76196  0.87019  Biso   1.000  C
  C660     1.0000 0.23804  0.57002  0.87019  Biso   1.000  C
  C661     1.0000 0.87082  0.64829  0.94697  Biso   1.000  C
  H366     1.0000 0.76115  0.48449  0.94350  Biso   1.000  H
  H367     1.0000 0.98699  0.81550  0.94570  Biso   1.000  H
  N73      1.0000 0.23155  0.66484  0.87019  Biso   1.000  N
  C662     1.0000 0.32839  0.86931  0.87041  Biso   1.000  C
  C663     1.0000 0.13062  0.45900  0.87041  Biso   1.000  C
  B38      1.0000 0.85210  0.64173  0.96019  Biso   1.000  B
  C664     1.0000 0.42695  0.97470  0.87040  Biso   1.000  C
  C665     1.0000 0.22544  0.86632  0.87082  Biso   1.000  C
  C666     1.0000 0.02527  0.45226  0.87040  Biso   1.000  C
  C667     1.0000 0.13364  0.35915  0.87082  Biso   1.000  C
  O76      1.0000 0.82360  0.53258  0.96556  Biso   1.000  O
  O77      1.0000 0.94129  0.73134  0.96713  Biso   1.000  O
  N74      1.0000 0.73451  0.65170  0.96205  Biso   1.000  N
  H368     1.0000 0.49804  0.97999  0.87014  Biso   1.000  H
  C668     1.0000 0.41864  0.07122  0.87080  Biso   1.000  C
  C669     1.0000 0.22385  0.96609  0.87123  Biso   1.000  C
  H369     1.0000 0.15758  0.79692  0.87084  Biso   1.000  H
  H370     1.0000 0.01997  0.51800  0.87014  Biso   1.000  H
  C670     1.0000 0.92887  0.34747  0.87080  Biso   1.000  C
  C671     1.0000 0.03392  0.25777  0.87123  Biso   1.000  C
  H371     1.0000 0.20304  0.36060  0.87084  Biso   1.000  H
  C672     1.0000 0.86278  0.56192  0.97635  Biso   1.000  C
  C673     1.0000 0.93420  0.67950  0.97722  Biso   1.000  C
  C674     1.0000 0.73778  0.75189  0.96253  Biso   1.000  C
  C675     1.0000 0.63277  0.55723  0.96211  Biso   1.000  C
  H372     1.0000 0.48509  0.14165  0.87074  Biso   1.000  H
  N75      1.0000 0.31840  0.06790  0.87129  Biso   1.000  N
  H373     1.0000 0.15379  0.96302  0.87143  Biso   1.000  H
  H374     1.0000 0.85841  0.34346  0.87074  Biso   1.000  H
  N76      1.0000 0.93216  0.25052  0.87129  Biso   1.000  N
  H375     1.0000 0.03696  0.19074  0.87143  Biso   1.000  H
  C676     1.0000 0.83949  0.49097  0.98544  Biso   1.000  C
  C677     1.0000 0.98520  0.72819  0.98724  Biso   1.000  C
  C678     1.0000 0.64139  0.76025  0.96294  Biso   1.000  C
  H376     1.0000 0.80826  0.81840  0.96260  Biso   1.000  H
  H377     1.0000 0.62966  0.48705  0.96190  Biso   1.000  H
  C679     1.0000 0.53296  0.55876  0.96251  Biso   1.000  C
  B39      1.0000 0.30837  0.18548  0.87315  Biso   1.000  B
  B40      1.0000 0.81462  0.12296  0.87315  Biso   1.000  B
  C680     1.0000 0.88677  0.53975  0.99573  Biso   1.000  C
  H378     1.0000 0.79324  0.41236  0.98470  Biso   1.000  H
  C681     1.0000 0.95975  0.65588  0.99660  Biso   1.000  C
  H379     1.0000 0.03496  0.80630  0.98780  Biso   1.000  H
  C682     1.0000 0.53598  0.66168  0.96292  Biso   1.000  C
  H380     1.0000 0.64667  0.83136  0.96320  Biso   1.000  H
  H381     1.0000 0.46358  0.49089  0.96250  Biso   1.000  H
  C683     1.0000 0.31497  0.20416  0.88637  Biso   1.000  C
  O78      1.0000 0.19931  0.15700  0.86778  Biso   1.000  O
  O79      1.0000 0.39808  0.27467  0.86620  Biso   1.000  O
  C684     1.0000 0.79586  0.11085  0.88637  Biso   1.000  C
  O80      1.0000 0.84303  0.04229  0.86778  Biso   1.000  O
  O81      1.0000 0.72537  0.12347  0.86620  Biso   1.000  O
  Cl72     1.0000 0.85394  0.45252  0.00751  Biso   1.000  Cl
  Cl73     1.0000 0.02121  0.71736  0.00946  Biso   1.000  Cl
  C685     1.0000 0.42855  0.66526  0.96314  Biso   1.000  C
  C686     1.0000 0.22136  0.14217  0.89325  Biso   1.000  C
  C687     1.0000 0.41705  0.27612  0.89194  Biso   1.000  C
  C688     1.0000 0.22860  0.19623  0.85698  Biso   1.000  C
  C689     1.0000 0.34617  0.26760  0.85611  Biso   1.000  C
  C690     1.0000 0.85788  0.07921  0.89325  Biso   1.000  C
  C691     1.0000 0.72400  0.14095  0.89194  Biso   1.000  C
  C692     1.0000 0.80382  0.03240  0.85698  Biso   1.000  C
  C693     1.0000 0.73249  0.07862  0.85611  Biso   1.000  C
  N77      1.0000 0.43504  0.76656  0.96315  Biso   1.000  N
  N78      1.0000 0.33148  0.56490  0.96315  Biso   1.000  N
  H382     1.0000 0.15119  0.09459  0.88984  Biso   1.000  H
  C694     1.0000 0.22741  0.14762  0.90484  Biso   1.000  C
  C695     1.0000 0.42440  0.28346  0.90366  Biso   1.000  C
  H383     1.0000 0.48222  0.32038  0.88764  Biso   1.000  H
  C696     1.0000 0.15769  0.17286  0.84789  Biso   1.000  C
  C697     1.0000 0.39493  0.31859  0.84610  Biso   1.000  C
  H384     1.0000 0.90543  0.05662  0.88984  Biso   1.000  H
  C698     1.0000 0.85249  0.07981  0.90484  Biso   1.000  C
  C699     1.0000 0.71661  0.14095  0.90366  Biso   1.000  C
  H385     1.0000 0.67965  0.16184  0.88764  Biso   1.000  H
  C700     1.0000 0.82710  0.98474  0.84789  Biso   1.000  C
  C701     1.0000 0.68149  0.07631  0.84610  Biso   1.000  C
  C702     1.0000 0.33469  0.76332  0.96314  Biso   1.000  C
  C703     1.0000 0.23666  0.57138  0.96314  Biso   1.000  C
  H386     1.0000 0.16191  0.10243  0.90904  Biso   1.000  H
  C704     1.0000 0.32923  0.21908  0.91047  Biso   1.000  C
  H387     1.0000 0.49433  0.33248  0.90703  Biso   1.000  H
  C705     1.0000 0.20653  0.22019  0.83760  Biso   1.000  C
  H388     1.0000 0.07910  0.12673  0.84863  Biso   1.000  H
  H389     1.0000 0.47300  0.36838  0.84553  Biso   1.000  H
  C706     1.0000 0.32256  0.29318  0.83673  Biso   1.000  C
  H390     1.0000 0.89765  0.05952  0.90904  Biso   1.000  H
  C707     1.0000 0.78097  0.11017  0.91047  Biso   1.000  C
  H391     1.0000 0.66761  0.16184  0.90703  Biso   1.000  H
  C708     1.0000 0.77987  0.98627  0.83760  Biso   1.000  C
  H392     1.0000 0.87330  0.95234  0.84863  Biso   1.000  H
  H393     1.0000 0.63169  0.10462  0.84553  Biso   1.000  H
  C709     1.0000 0.70685  0.02942  0.83673  Biso   1.000  C
  C710     1.0000 0.33825  0.87425  0.96292  Biso   1.000  C
  N79      1.0000 0.23338  0.66850  0.96315  Biso   1.000  N
  C711     1.0000 0.12575  0.46403  0.96292  Biso   1.000  C
  C712     1.0000 0.33752  0.22326  0.92286  Biso   1.000  C
  Cl74     1.0000 0.11923  0.18736  0.82582  Biso   1.000  Cl
  Cl75     1.0000 0.38417  0.35465  0.82388  Biso   1.000  Cl
  C713     1.0000 0.77682  0.11426  0.92286  Biso   1.000  C
  Cl76     1.0000 0.81267  0.93179  0.82582  Biso   1.000  Cl
  Cl77     1.0000 0.64546  0.02950  0.82388  Biso   1.000  Cl
  C714     1.0000 0.23968  0.88108  0.96294  Biso   1.000  C
  C715     1.0000 0.44116  0.97419  0.96251  Biso   1.000  C
  C716     1.0000 0.11887  0.35855  0.96294  Biso   1.000  C
  C717     1.0000 0.02578  0.46701  0.96251  Biso   1.000  C
  C718     1.0000 0.43935  0.25353  0.92849  Biso   1.000  C
  C719     1.0000 0.24238  0.19247  0.92968  Biso   1.000  C
  C720     1.0000 0.74650  0.18580  0.92849  Biso   1.000  C
  C721     1.0000 0.80762  0.04988  0.92968  Biso   1.000  C
  H394     1.0000 0.16859  0.81525  0.96320  Biso   1.000  H
  C722     1.0000 0.24807  0.98587  0.96253  Biso   1.000  C
  H395     1.0000 0.50907  0.97265  0.96250  Biso   1.000  H
  C723     1.0000 0.44286  0.07566  0.96211  Biso   1.000  C
  H396     1.0000 0.18468  0.35327  0.96320  Biso   1.000  H
  C724     1.0000 0.01413  0.26220  0.96253  Biso   1.000  C
  H397     1.0000 0.02733  0.53642  0.96250  Biso   1.000  H
  C725     1.0000 0.92439  0.36716  0.96211  Biso   1.000  C
  C726     1.0000 0.44533  0.25412  0.94008  Biso   1.000  C
  H398     1.0000 0.50480  0.27382  0.92430  Biso   1.000  H
  H399     1.0000 0.17249  0.17158  0.92630  Biso   1.000  H
  C727     1.0000 0.24976  0.19247  0.94139  Biso   1.000  C
  C728     1.0000 0.74586  0.19117  0.94008  Biso   1.000  C
  H400     1.0000 0.72619  0.23099  0.92430  Biso   1.000  H
  H401     1.0000 0.82856  0.00094  0.92630  Biso   1.000  H
  C729     1.0000 0.80763  0.05730  0.94139  Biso   1.000  C
  H402     1.0000 0.18162  0.98988  0.96260  Biso   1.000  H
  N80      1.0000 0.34831  0.08282  0.96205  Biso   1.000  N
  H403     1.0000 0.51293  0.14268  0.96190  Biso   1.000  H
  H404     1.0000 0.01011  0.19168  0.96260  Biso   1.000  H
  N81      1.0000 0.91721  0.26552  0.96205  Biso   1.000  N
  H405     1.0000 0.85744  0.37032  0.96190  Biso   1.000  H
  C730     1.0000 0.35172  0.22257  0.94697  Biso   1.000  C
  H406     1.0000 0.51548  0.27672  0.94350  Biso   1.000  H
  H407     1.0000 0.18452  0.17158  0.94570  Biso   1.000  H
  C731     1.0000 0.77748  0.12918  0.94697  Biso   1.000  C
  H408     1.0000 0.72332  0.23884  0.94350  Biso   1.000  H
  H409     1.0000 0.82852  0.01296  0.94570  Biso   1.000  H
  B41      1.0000 0.35837  0.21047  0.96019  Biso   1.000  B
  B42      1.0000 0.78955  0.14785  0.96019  Biso   1.000  B
  O82      1.0000 0.46741  0.29104  0.96556  Biso   1.000  O
  O83      1.0000 0.26862  0.20995  0.96713  Biso   1.000  O
  O84      1.0000 0.70902  0.17642  0.96556  Biso   1.000  O
  O85      1.0000 0.79008  0.05866  0.96713  Biso   1.000  O
  C732     1.0000 0.43809  0.30094  0.97635  Biso   1.000  C
  C733     1.0000 0.32054  0.25472  0.97722  Biso   1.000  C
  C734     1.0000 0.69908  0.13720  0.97635  Biso   1.000  C
  C735     1.0000 0.74529  0.06583  0.97722  Biso   1.000  C
  C736     1.0000 0.50899  0.34851  0.98544  Biso   1.000  C
  C737     1.0000 0.27184  0.25702  0.98724  Biso   1.000  C
  C738     1.0000 0.65150  0.16047  0.98544  Biso   1.000  C
  C739     1.0000 0.74306  0.01484  0.98724  Biso   1.000  C
  C740     1.0000 0.46027  0.34707  0.99573  Biso   1.000  C
  H410     1.0000 0.58759  0.38092  0.98470  Biso   1.000  H
  H411     1.0000 0.19378  0.22880  0.98780  Biso   1.000  H
  C741     1.0000 0.34410  0.30392  0.99660  Biso   1.000  C
  C742     1.0000 0.65306  0.11324  0.99573  Biso   1.000  C
  H412     1.0000 0.61907  0.20669  0.98470  Biso   1.000  H
  H413     1.0000 0.77128  0.96495  0.98780  Biso   1.000  H
  C743     1.0000 0.69605  0.04016  0.99660  Biso   1.000  C
  Cl78     1.0000 0.54751  0.40147  0.00751  Biso   1.000  Cl
  Cl79     1.0000 0.28262  0.30383  0.00946  Biso   1.000  Cl
  Cl80     1.0000 0.59858  0.14606  0.00751  Biso   1.000  Cl
  Cl81     1.0000 0.69618  0.97868  0.00946  Biso   1.000  Cl
