data_image0
_cell_length_a       40.845
_cell_length_b       11.506
_cell_length_c       22.711
_cell_angle_alpha    90
_cell_angle_beta     91.31
_cell_angle_gamma    90

_symmetry_space_group_name_H-M    "P 1"
_symmetry_int_tables_number       1

loop_
  _symmetry_equiv_pos_as_xyz
  'x, y, z'

loop_
  _atom_site_label
  _atom_site_occupancy
  _atom_site_fract_x
  _atom_site_fract_y
  _atom_site_fract_z
  _atom_site_thermal_displace_type
  _atom_site_B_iso_or_equiv
  _atom_site_type_symbol
  C1       1.0000 0.53160  0.36372  0.50302  Biso   1.000  C
  C2       1.0000 0.52948  0.39475  0.43818  Biso   1.000  C
  H1       1.0000 0.51869  0.29254  0.51033  Biso   1.000  H
  H2       1.0000 0.52250  0.42769  0.52671  Biso   1.000  H
  C3       1.0000 0.56776  0.34330  0.52068  Biso   1.000  C
  C4       1.0000 0.52293  0.31375  0.39511  Biso   1.000  C
  C5       1.0000 0.53558  0.50826  0.42149  Biso   1.000  C
  C6       1.0000 0.58160  0.23466  0.51478  Biso   1.000  C
  C7       1.0000 0.58719  0.43525  0.54041  Biso   1.000  C
  O1       1.0000 0.51647  0.20181  0.41489  Biso   1.000  O
  C8       1.0000 0.52325  0.34512  0.33570  Biso   1.000  C
  C9       1.0000 0.53655  0.53972  0.36278  Biso   1.000  C
  H3       1.0000 0.53919  0.56579  0.45091  Biso   1.000  H
  H4       1.0000 0.56831  0.17130  0.50205  Biso   1.000  H
  C10      1.0000 0.61520  0.21624  0.52728  Biso   1.000  C
  O2       1.0000 0.57196  0.54102  0.54644  Biso   1.000  O
  C11      1.0000 0.62052  0.41691  0.55318  Biso   1.000  C
  C12      1.0000 0.50340  0.11898  0.37401  Biso   1.000  C
  C13      1.0000 0.53009  0.45906  0.31909  Biso   1.000  C
  H5       1.0000 0.51877  0.28811  0.30632  Biso   1.000  H
  O3       1.0000 0.54306  0.65209  0.34362  Biso   1.000  O
  O4       1.0000 0.63037  0.11116  0.52090  Biso   1.000  O
  C14      1.0000 0.63464  0.30880  0.54662  Biso   1.000  C
  C15      1.0000 0.59108  0.63549  0.56771  Biso   1.000  C
  H6       1.0000 0.63367  0.48001  0.56675  Biso   1.000  H
  C16      1.0000 0.49075  0.01912  0.40969  Biso   1.000  C
  H7       1.0000 0.52063  0.09204  0.34728  Biso   1.000  H
  H8       1.0000 0.48544  0.15409  0.35005  Biso   1.000  H
  C17      1.0000 0.53076  0.49331  0.25408  Biso   1.000  C
  C18      1.0000 0.54738  0.74066  0.38701  Biso   1.000  C
  C19      1.0000 0.61105  0.01356  0.50539  Biso   1.000  C
  C20      1.0000 0.67110  0.29306  0.55891  Biso   1.000  C
  H9       1.0000 0.60848  0.65461  0.53962  Biso   1.000  H
  H10      1.0000 0.60154  0.61577  0.60616  Biso   1.000  H
  C21      1.0000 0.56798  0.73735  0.57419  Biso   1.000  C
  H11      1.0000 0.47388  0.04719  0.43616  Biso   1.000  H
  H12      1.0000 0.48131  0.96019  0.38313  Biso   1.000  H
  H13      1.0000 0.50882  0.98488  0.43290  Biso   1.000  H
  C22      1.0000 0.56444  0.49965  0.22858  Biso   1.000  C
  H14      1.0000 0.51761  0.43629  0.23105  Biso   1.000  H
  H15      1.0000 0.52010  0.57014  0.24928  Biso   1.000  H
  H16      1.0000 0.56542  0.71954  0.41484  Biso   1.000  H
  H17      1.0000 0.52711  0.75022  0.40951  Biso   1.000  H
  C23      1.0000 0.55539  0.85077  0.35591  Biso   1.000  C
  H18      1.0000 0.59870  0.02877  0.46813  Biso   1.000  H
  H19      1.0000 0.59514  0.99731  0.53658  Biso   1.000  H
  C24      1.0000 0.63336  0.91248  0.49808  Biso   1.000  C
  H20      1.0000 0.67798  0.34539  0.59145  Biso   1.000  H
  H21      1.0000 0.67523  0.21215  0.57181  Biso   1.000  H
  C25      1.0000 0.69163  0.31862  0.50570  Biso   1.000  C
  H22      1.0000 0.55721  0.75395  0.53609  Biso   1.000  H
  H23      1.0000 0.58039  0.80575  0.58745  Biso   1.000  H
  H24      1.0000 0.55141  0.71823  0.60317  Biso   1.000  H
  C26      1.0000 0.57906  0.40127  0.20568  Biso   1.000  C
  C27      1.0000 0.58138  0.60516  0.22638  Biso   1.000  C
  H25      1.0000 0.53638  0.87563  0.33186  Biso   1.000  H
  H26      1.0000 0.57406  0.83800  0.33045  Biso   1.000  H
  H27      1.0000 0.56082  0.91118  0.38489  Biso   1.000  H
  H28      1.0000 0.64693  0.92500  0.46364  Biso   1.000  H
  H29      1.0000 0.62031  0.84165  0.49249  Biso   1.000  H
  H30      1.0000 0.64742  0.90440  0.53336  Biso   1.000  H
  C28      1.0000 0.69776  0.22962  0.46580  Biso   1.000  C
  C29      1.0000 0.70478  0.42717  0.49628  Biso   1.000  C
  O5       1.0000 0.56138  0.30028  0.20890  Biso   1.000  O
  C30      1.0000 0.61047  0.40848  0.18221  Biso   1.000  C
  H31      1.0000 0.57126  0.67374  0.24061  Biso   1.000  H
  C31      1.0000 0.61261  0.61212  0.20401  Biso   1.000  C
  H32      1.0000 0.68843  0.15496  0.47170  Biso   1.000  H
  C32      1.0000 0.71746  0.24891  0.41740  Biso   1.000  C
  O6       1.0000 0.69716  0.51243  0.53618  Biso   1.000  O
  C33      1.0000 0.72540  0.44516  0.44840  Biso   1.000  C
  C34      1.0000 0.57431  0.19842  0.18229  Biso   1.000  C
  C35      1.0000 0.62775  0.51217  0.18168  Biso   1.000  C
  H33      1.0000 0.62008  0.34069  0.16609  Biso   1.000  H
  O7       1.0000 0.63103  0.71285  0.20141  Biso   1.000  O
  O8       1.0000 0.72455  0.16357  0.37639  Biso   1.000  O
  C36      1.0000 0.73137  0.35651  0.40819  Biso   1.000  C
  C37      1.0000 0.70947  0.62706  0.52799  Biso   1.000  C
  H34      1.0000 0.73540  0.51895  0.44338  Biso   1.000  H
  H35      1.0000 0.59530  0.17669  0.20203  Biso   1.000  H
  H36      1.0000 0.57847  0.21337  0.14019  Biso   1.000  H
  C38      1.0000 0.55019  0.10221  0.18802  Biso   1.000  C
  C39      1.0000 0.66223  0.51677  0.15930  Biso   1.000  C
  C40      1.0000 0.61914  0.81410  0.22872  Biso   1.000  C
  C41      1.0000 0.70837  0.05336  0.38212  Biso   1.000  C
  C42      1.0000 0.75252  0.38067  0.35569  Biso   1.000  C
  H37      1.0000 0.70238  0.65748  0.48897  Biso   1.000  H
  H38      1.0000 0.73371  0.62698  0.53028  Biso   1.000  H
  C43      1.0000 0.69597  0.70068  0.57591  Biso   1.000  C
  H39      1.0000 0.52929  0.12524  0.16930  Biso   1.000  H
  H40      1.0000 0.54690  0.08569  0.22973  Biso   1.000  H
  H41      1.0000 0.55849  0.03250  0.16855  Biso   1.000  H
  C44      1.0000 0.68664  0.48731  0.20788  Biso   1.000  C
  H42      1.0000 0.66446  0.46098  0.12649  Biso   1.000  H
  H43      1.0000 0.66681  0.59560  0.14415  Biso   1.000  H
  H44      1.0000 0.61515  0.79854  0.27082  Biso   1.000  H
  H45      1.0000 0.59823  0.83826  0.20956  Biso   1.000  H
  C45      1.0000 0.64389  0.90744  0.22308  Biso   1.000  C
  H46      1.0000 0.68432  0.06327  0.37952  Biso   1.000  H
  H47      1.0000 0.71422  0.01695  0.42043  Biso   1.000  H
  C46      1.0000 0.72007  0.97949  0.33200  Biso   1.000  C
  C47      1.0000 0.73109  0.41161  0.30280  Biso   1.000  C
  H48      1.0000 0.76764  0.44577  0.36485  Biso   1.000  H
  H49      1.0000 0.76580  0.31123  0.34675  Biso   1.000  H
  H50      1.0000 0.67199  0.70042  0.57300  Biso   1.000  H
  H51      1.0000 0.70403  0.78046  0.57190  Biso   1.000  H
  H52      1.0000 0.70305  0.66948  0.61427  Biso   1.000  H
  C48      1.0000 0.69364  0.36372  0.21938  Biso   1.000  C
  C49      1.0000 0.70228  0.56675  0.24162  Biso   1.000  C
  H53      1.0000 0.64601  0.92804  0.18150  Biso   1.000  H
  H54      1.0000 0.66505  0.88015  0.23885  Biso   1.000  H
  H55      1.0000 0.63695  0.97601  0.24523  Biso   1.000  H
  H56      1.0000 0.71306  0.01460  0.29447  Biso   1.000  H
  H57      1.0000 0.71078  0.90136  0.33508  Biso   1.000  H
  H58      1.0000 0.74404  0.97471  0.33385  Biso   1.000  H
  C50      1.0000 0.71686  0.33383  0.26818  Biso   1.000  C
  C51      1.0000 0.72426  0.53668  0.29139  Biso   1.000  C
  O9       1.0000 0.68017  0.28663  0.19018  Biso   1.000  O
  H59      1.0000 0.69893  0.64671  0.23277  Biso   1.000  H
  H60      1.0000 0.72177  0.25413  0.27483  Biso   1.000  H
  O10      1.0000 0.73682  0.61325  0.32231  Biso   1.000  O
  C52      1.0000 0.46836  0.63628  0.49698  Biso   1.000  C
  C53      1.0000 0.43219  0.65670  0.47928  Biso   1.000  C
  C54      1.0000 0.47045  0.60516  0.56181  Biso   1.000  C
  H61      1.0000 0.48126  0.70737  0.48967  Biso   1.000  H
  H62      1.0000 0.47746  0.57231  0.47329  Biso   1.000  H
  C55      1.0000 0.41834  0.76525  0.48518  Biso   1.000  C
  C56      1.0000 0.41277  0.56466  0.45959  Biso   1.000  C
  C57      1.0000 0.47702  0.68616  0.60489  Biso   1.000  C
  C58      1.0000 0.46435  0.49166  0.57851  Biso   1.000  C
  C59      1.0000 0.38476  0.78376  0.47271  Biso   1.000  C
  H63      1.0000 0.43162  0.82870  0.49791  Biso   1.000  H
  C60      1.0000 0.37943  0.58309  0.44682  Biso   1.000  C
  O11      1.0000 0.42797  0.45898  0.45356  Biso   1.000  O
  O12      1.0000 0.48346  0.79819  0.58511  Biso   1.000  O
  C61      1.0000 0.47670  0.65488  0.66430  Biso   1.000  C
  H64      1.0000 0.46077  0.43421  0.54908  Biso   1.000  H
  C62      1.0000 0.46341  0.46028  0.63721  Biso   1.000  C
  C63      1.0000 0.36529  0.69120  0.45338  Biso   1.000  C
  O13      1.0000 0.36956  0.88875  0.47910  Biso   1.000  O
  H65      1.0000 0.36629  0.51990  0.43325  Biso   1.000  H
  C64      1.0000 0.40885  0.36451  0.43228  Biso   1.000  C
  C65      1.0000 0.49654  0.88102  0.62598  Biso   1.000  C
  C66      1.0000 0.46986  0.54085  0.68091  Biso   1.000  C
  H66      1.0000 0.48116  0.71189  0.69368  Biso   1.000  H
  O14      1.0000 0.45689  0.34791  0.65637  Biso   1.000  O
  C67      1.0000 0.32883  0.70685  0.44109  Biso   1.000  C
  C68      1.0000 0.38890  0.98635  0.49460  Biso   1.000  C
  H67      1.0000 0.39148  0.34539  0.46038  Biso   1.000  H
  H68      1.0000 0.39842  0.38415  0.39383  Biso   1.000  H
  C69      1.0000 0.43195  0.26256  0.42581  Biso   1.000  C
  H69      1.0000 0.47932  0.90796  0.65272  Biso   1.000  H
  H70      1.0000 0.51452  0.84591  0.64994  Biso   1.000  H
  C70      1.0000 0.50921  0.98088  0.59031  Biso   1.000  C
  C71      1.0000 0.46917  0.50669  0.74591  Biso   1.000  C
  C72      1.0000 0.45255  0.25926  0.61299  Biso   1.000  C
  C73      1.0000 0.30830  0.68138  0.49430  Biso   1.000  C
  H71      1.0000 0.32195  0.65461  0.40854  Biso   1.000  H
  H72      1.0000 0.32470  0.78785  0.42814  Biso   1.000  H
  H73      1.0000 0.40123  0.97115  0.53186  Biso   1.000  H
  H74      1.0000 0.40479  0.00269  0.46342  Biso   1.000  H
  C74      1.0000 0.36657  0.08743  0.50191  Biso   1.000  C
  H75      1.0000 0.44272  0.24605  0.46391  Biso   1.000  H
  H76      1.0000 0.41957  0.19416  0.41251  Biso   1.000  H
  H77      1.0000 0.44853  0.28168  0.39683  Biso   1.000  H
  H78      1.0000 0.52606  0.95281  0.56384  Biso   1.000  H
  H79      1.0000 0.51863  0.03981  0.61687  Biso   1.000  H
  H80      1.0000 0.49114  0.01512  0.56710  Biso   1.000  H
  C75      1.0000 0.43549  0.50026  0.77141  Biso   1.000  C
  H81      1.0000 0.48232  0.56371  0.76895  Biso   1.000  H
  H82      1.0000 0.47986  0.42986  0.75071  Biso   1.000  H
  H83      1.0000 0.43452  0.28046  0.58516  Biso   1.000  H
  H84      1.0000 0.47285  0.24978  0.59049  Biso   1.000  H
  C76      1.0000 0.44457  0.14923  0.64409  Biso   1.000  C
  C77      1.0000 0.29515  0.57274  0.50368  Biso   1.000  C
  C78      1.0000 0.30218  0.77038  0.53420  Biso   1.000  C
  H85      1.0000 0.35303  0.07500  0.53631  Biso   1.000  H
  H86      1.0000 0.37962  0.15835  0.50751  Biso   1.000  H
  H87      1.0000 0.35251  0.09560  0.46664  Biso   1.000  H
  C79      1.0000 0.42087  0.59864  0.79432  Biso   1.000  C
  C80      1.0000 0.41857  0.39475  0.77362  Biso   1.000  C
  H88      1.0000 0.46358  0.12437  0.66813  Biso   1.000  H
  H89      1.0000 0.42587  0.16192  0.66954  Biso   1.000  H
  H90      1.0000 0.43911  0.08874  0.61511  Biso   1.000  H
  O15      1.0000 0.30277  0.48757  0.46382  Biso   1.000  O
  C81      1.0000 0.27456  0.55475  0.55160  Biso   1.000  C
  H91      1.0000 0.31153  0.84504  0.52830  Biso   1.000  H
  C82      1.0000 0.28247  0.75109  0.58260  Biso   1.000  C
  C83      1.0000 0.38949  0.59152  0.81779  Biso   1.000  C
  O16      1.0000 0.43858  0.69972  0.79110  Biso   1.000  O
  C84      1.0000 0.38735  0.38788  0.79599  Biso   1.000  C
  H92      1.0000 0.42870  0.32626  0.75939  Biso   1.000  H
  C85      1.0000 0.29049  0.37285  0.47201  Biso   1.000  C
  C86      1.0000 0.26856  0.64349  0.59181  Biso   1.000  C
  H93      1.0000 0.26454  0.48097  0.55662  Biso   1.000  H
  O17      1.0000 0.27540  0.83635  0.62361  Biso   1.000  O
  C87      1.0000 0.37218  0.48775  0.81828  Biso   1.000  C
  H94      1.0000 0.37985  0.65922  0.83391  Biso   1.000  H
  C88      1.0000 0.42565  0.80158  0.81770  Biso   1.000  C
  O18      1.0000 0.36890  0.28707  0.79859  Biso   1.000  O
  C89      1.0000 0.30396  0.29932  0.42409  Biso   1.000  C
  H95      1.0000 0.29755  0.34252  0.51103  Biso   1.000  H
  H96      1.0000 0.26625  0.37294  0.46967  Biso   1.000  H
  C90      1.0000 0.24744  0.61924  0.64431  Biso   1.000  C
  C91      1.0000 0.29156  0.94655  0.61788  Biso   1.000  C
  C92      1.0000 0.33773  0.48323  0.84069  Biso   1.000  C
  H97      1.0000 0.40466  0.82322  0.79797  Biso   1.000  H
  H98      1.0000 0.42146  0.78663  0.85981  Biso   1.000  H
  C93      1.0000 0.44976  0.89779  0.81198  Biso   1.000  C
  C94      1.0000 0.38079  0.18590  0.77128  Biso   1.000  C
  H99      1.0000 0.32794  0.29950  0.42700  Biso   1.000  H
  H100     1.0000 0.29593  0.21945  0.42810  Biso   1.000  H
  H101     1.0000 0.29689  0.33052  0.38573  Biso   1.000  H
  H102     1.0000 0.23229  0.55415  0.63514  Biso   1.000  H
  H103     1.0000 0.23416  0.68877  0.65325  Biso   1.000  H
  C95      1.0000 0.26885  0.58839  0.69720  Biso   1.000  C
  H104     1.0000 0.31564  0.93673  0.62048  Biso   1.000  H
  H105     1.0000 0.28574  0.98305  0.57956  Biso   1.000  H
  C96      1.0000 0.27986  0.02051  0.66800  Biso   1.000  C
  C97      1.0000 0.31331  0.51269  0.79211  Biso   1.000  C
  H106     1.0000 0.33548  0.53902  0.87351  Biso   1.000  H
  H107     1.0000 0.33315  0.40431  0.85584  Biso   1.000  H
  H108     1.0000 0.47064  0.87476  0.83070  Biso   1.000  H
  H109     1.0000 0.45305  0.91422  0.77027  Biso   1.000  H
  H110     1.0000 0.44144  0.96750  0.83144  Biso   1.000  H
  H111     1.0000 0.38479  0.20137  0.72918  Biso   1.000  H
  H112     1.0000 0.40172  0.16165  0.79044  Biso   1.000  H
  C98      1.0000 0.35606  0.09247  0.77688  Biso   1.000  C
  C99      1.0000 0.28309  0.66617  0.73178  Biso   1.000  C
  C100     1.0000 0.27570  0.46332  0.70861  Biso   1.000  C
  H113     1.0000 0.28690  0.98540  0.70553  Biso   1.000  H
  H114     1.0000 0.28917  0.09864  0.66492  Biso   1.000  H
  H115     1.0000 0.25589  0.02529  0.66615  Biso   1.000  H
  C101     1.0000 0.30631  0.63628  0.78057  Biso   1.000  C
  C102     1.0000 0.29766  0.43317  0.75838  Biso   1.000  C
  H116     1.0000 0.35395  0.07188  0.81850  Biso   1.000  H
  H117     1.0000 0.33491  0.11985  0.76115  Biso   1.000  H
  H118     1.0000 0.36300  0.02399  0.75477  Biso   1.000  H
  H119     1.0000 0.27816  0.74587  0.72517  Biso   1.000  H
  O19      1.0000 0.26311  0.38667  0.67769  Biso   1.000  O
  O20      1.0000 0.31976  0.71337  0.80982  Biso   1.000  O
  H120     1.0000 0.30100  0.35329  0.76719  Biso   1.000  H
  C103     1.0000 0.55016  0.39779  0.68800  Biso   1.000  C
  C104     1.0000 0.57428  0.30158  0.68231  Biso   1.000  C
  H121     1.0000 0.52928  0.37476  0.66932  Biso   1.000  H
  H122     1.0000 0.54687  0.41422  0.72975  Biso   1.000  H
  H123     1.0000 0.55848  0.46750  0.66853  Biso   1.000  H
  O21      1.0000 0.56134  0.19972  0.70892  Biso   1.000  O
  H124     1.0000 0.59526  0.32331  0.70205  Biso   1.000  H
  H125     1.0000 0.57847  0.28663  0.64021  Biso   1.000  H
  C105     1.0000 0.57905  0.09873  0.70570  Biso   1.000  C
  C106     1.0000 0.61043  0.09152  0.68218  Biso   1.000  C
  C107     1.0000 0.56441  0.00026  0.72860  Biso   1.000  C
  H126     1.0000 0.62007  0.15922  0.66611  Biso   1.000  H
  C108     1.0000 0.62774  0.98783  0.68170  Biso   1.000  C
  C109     1.0000 0.53075  0.00669  0.75410  Biso   1.000  C
  C110     1.0000 0.58135  0.89484  0.72640  Biso   1.000  C
  C111     1.0000 0.66219  0.98323  0.65928  Biso   1.000  C
  C112     1.0000 0.61257  0.88788  0.70398  Biso   1.000  C
  H127     1.0000 0.51758  0.06371  0.73103  Biso   1.000  H
  C113     1.0000 0.53006  0.04094  0.81911  Biso   1.000  C
  H128     1.0000 0.52006  0.92986  0.74930  Biso   1.000  H
  H129     1.0000 0.57122  0.82626  0.74058  Biso   1.000  H
  C114     1.0000 0.68661  0.01269  0.70790  Biso   1.000  C
  H130     1.0000 0.66445  0.03902  0.62647  Biso   1.000  H
  H131     1.0000 0.66678  0.90431  0.64413  Biso   1.000  H
  O22      1.0000 0.63102  0.78707  0.70139  Biso   1.000  O
  C115     1.0000 0.52322  0.15488  0.83572  Biso   1.000  C
  C116     1.0000 0.53652  0.96028  0.86280  Biso   1.000  C
  C117     1.0000 0.69361  0.13628  0.71940  Biso   1.000  C
  C118     1.0000 0.70227  0.93317  0.74160  Biso   1.000  C
  C119     1.0000 0.61913  0.68590  0.72869  Biso   1.000  C
  H132     1.0000 0.51876  0.21189  0.80630  Biso   1.000  H
  C120     1.0000 0.52290  0.18616  0.89509  Biso   1.000  C
  O23      1.0000 0.54303  0.84791  0.84360  Biso   1.000  O
  C121     1.0000 0.53557  0.99174  0.92151  Biso   1.000  C
  O24      1.0000 0.68016  0.21337  0.69015  Biso   1.000  O
  C122     1.0000 0.71683  0.16617  0.76820  Biso   1.000  C
  H133     1.0000 0.69892  0.85329  0.73279  Biso   1.000  H
  C123     1.0000 0.72422  0.96332  0.79141  Biso   1.000  C
  H134     1.0000 0.61511  0.70146  0.77080  Biso   1.000  H
  H135     1.0000 0.59820  0.66174  0.70958  Biso   1.000  H
  C124     1.0000 0.64386  0.59247  0.72310  Biso   1.000  C
  O25      1.0000 0.51644  0.29819  0.91491  Biso   1.000  O
  C125     1.0000 0.52947  0.10516  0.93820  Biso   1.000  C
  C126     1.0000 0.54735  0.75934  0.88698  Biso   1.000  C
  H136     1.0000 0.53915  0.93421  0.95093  Biso   1.000  H
  C127     1.0000 0.73108  0.08839  0.80282  Biso   1.000  C
  H137     1.0000 0.72176  0.24587  0.77481  Biso   1.000  H
  O26      1.0000 0.73678  0.88667  0.82228  Biso   1.000  O
  H138     1.0000 0.64597  0.57196  0.68148  Biso   1.000  H
  H139     1.0000 0.66502  0.61985  0.73887  Biso   1.000  H
  H140     1.0000 0.63692  0.52399  0.74521  Biso   1.000  H
  C128     1.0000 0.50339  0.38102  0.87399  Biso   1.000  C
  C129     1.0000 0.53161  0.13628  0.00299  Biso   1.000  C
  H141     1.0000 0.56541  0.78046  0.91482  Biso   1.000  H
  H142     1.0000 0.52707  0.74978  0.90953  Biso   1.000  H
  C130     1.0000 0.55535  0.64923  0.85589  Biso   1.000  C
  C131     1.0000 0.75249  0.11933  0.85571  Biso   1.000  C
  H143     1.0000 0.52060  0.40796  0.84730  Biso   1.000  H
  H144     1.0000 0.48540  0.34591  0.85003  Biso   1.000  H
  C132     1.0000 0.49072  0.48088  0.90971  Biso   1.000  C
  H145     1.0000 0.51871  0.20746  0.01030  Biso   1.000  H
  H146     1.0000 0.52251  0.07231  0.02673  Biso   1.000  H
  C133     1.0000 0.56778  0.15670  0.02070  Biso   1.000  C
  H147     1.0000 0.53634  0.62437  0.83184  Biso   1.000  H
  H148     1.0000 0.57405  0.66200  0.83043  Biso   1.000  H
  H149     1.0000 0.56081  0.58874  0.88487  Biso   1.000  H
  H150     1.0000 0.76761  0.05423  0.86483  Biso   1.000  H
  H151     1.0000 0.76576  0.18877  0.84673  Biso   1.000  H
  C134     1.0000 0.73136  0.14349  0.90821  Biso   1.000  C
  H152     1.0000 0.48130  0.53981  0.88315  Biso   1.000  H
  H153     1.0000 0.47384  0.45281  0.93613  Biso   1.000  H
  H154     1.0000 0.50879  0.51512  0.93288  Biso   1.000  H
  C135     1.0000 0.58164  0.26525  0.01480  Biso   1.000  C
  C136     1.0000 0.58720  0.06466  0.04038  Biso   1.000  C
  C137     1.0000 0.71745  0.25109  0.91737  Biso   1.000  C
  C138     1.0000 0.72536  0.05484  0.94838  Biso   1.000  C
  H155     1.0000 0.56833  0.32870  0.00207  Biso   1.000  H
  C139     1.0000 0.61521  0.28376  0.02730  Biso   1.000  C
  O27      1.0000 0.57200  0.95898  0.04642  Biso   1.000  O
  C140     1.0000 0.62054  0.08309  0.05320  Biso   1.000  C
  O28      1.0000 0.72452  0.33643  0.87641  Biso   1.000  O
  C141     1.0000 0.69775  0.27038  0.96578  Biso   1.000  C
  C142     1.0000 0.70474  0.07283  0.99630  Biso   1.000  C
  H156     1.0000 0.73539  0.98097  0.94340  Biso   1.000  H
  O29      1.0000 0.63041  0.38875  0.02087  Biso   1.000  O
  C143     1.0000 0.63465  0.19120  0.04659  Biso   1.000  C
  C144     1.0000 0.59112  0.86451  0.06769  Biso   1.000  C
  H157     1.0000 0.63368  0.01990  0.06672  Biso   1.000  H
  C145     1.0000 0.70836  0.44655  0.88209  Biso   1.000  C
  H158     1.0000 0.68840  0.34504  0.97168  Biso   1.000  H
  C146     1.0000 0.69164  0.18138  0.00568  Biso   1.000  C
  O30      1.0000 0.69717  0.98757  0.03616  Biso   1.000  O
  C147     1.0000 0.61107  0.48635  0.00541  Biso   1.000  C
  C148     1.0000 0.67114  0.20694  0.05888  Biso   1.000  C
  H159     1.0000 0.60849  0.84539  0.03959  Biso   1.000  H
  H160     1.0000 0.60155  0.88423  0.10618  Biso   1.000  H
  C149     1.0000 0.56802  0.76265  0.07421  Biso   1.000  C
  H161     1.0000 0.68429  0.43673  0.87950  Biso   1.000  H
  H162     1.0000 0.71419  0.48305  0.92046  Biso   1.000  H
  C150     1.0000 0.72006  0.52051  0.83197  Biso   1.000  C
  C151     1.0000 0.70948  0.87294  0.02801  Biso   1.000  C
  H163     1.0000 0.59867  0.47115  0.96811  Biso   1.000  H
  C152     1.0000 0.63335  0.58752  0.99810  Biso   1.000  C
  H164     1.0000 0.59518  0.50269  0.03660  Biso   1.000  H
  H165     1.0000 0.67802  0.15461  0.09147  Biso   1.000  H
  H166     1.0000 0.67525  0.28785  0.07183  Biso   1.000  H
  H167     1.0000 0.55725  0.74605  0.03611  Biso   1.000  H
  H168     1.0000 0.58040  0.69416  0.08747  Biso   1.000  H
  H169     1.0000 0.55144  0.78177  0.10315  Biso   1.000  H
  H170     1.0000 0.71302  0.48540  0.79445  Biso   1.000  H
  H171     1.0000 0.71075  0.59864  0.83506  Biso   1.000  H
  H172     1.0000 0.74401  0.52529  0.83387  Biso   1.000  H
  H173     1.0000 0.70237  0.84252  0.98894  Biso   1.000  H
  H174     1.0000 0.73372  0.87302  0.03030  Biso   1.000  H
  C153     1.0000 0.69601  0.79932  0.07588  Biso   1.000  C
  H175     1.0000 0.64689  0.57500  0.96366  Biso   1.000  H
  H176     1.0000 0.62030  0.65835  0.99251  Biso   1.000  H
  H177     1.0000 0.64746  0.59560  0.03338  Biso   1.000  H
  H178     1.0000 0.67203  0.79950  0.07298  Biso   1.000  H
  H179     1.0000 0.70404  0.71954  0.07192  Biso   1.000  H
  H180     1.0000 0.70309  0.83052  0.11429  Biso   1.000  H
  C154     1.0000 0.44977  0.60221  0.31200  Biso   1.000  C
  C155     1.0000 0.42566  0.69842  0.31768  Biso   1.000  C
  H181     1.0000 0.47067  0.62524  0.33068  Biso   1.000  H
  H182     1.0000 0.45309  0.58569  0.27025  Biso   1.000  H
  H183     1.0000 0.44148  0.53250  0.33147  Biso   1.000  H
  O31      1.0000 0.43859  0.80028  0.29108  Biso   1.000  O
  H184     1.0000 0.40467  0.67669  0.29795  Biso   1.000  H
  H185     1.0000 0.42149  0.71337  0.35979  Biso   1.000  H
  C156     1.0000 0.42090  0.90127  0.29430  Biso   1.000  C
  C157     1.0000 0.38952  0.90848  0.31781  Biso   1.000  C
  C158     1.0000 0.43552  0.99965  0.27139  Biso   1.000  C
  C159     1.0000 0.37222  0.01217  0.31830  Biso   1.000  C
  H186     1.0000 0.37988  0.84069  0.33389  Biso   1.000  H
  C160     1.0000 0.41858  0.10516  0.27360  Biso   1.000  C
  C161     1.0000 0.46920  0.99331  0.24589  Biso   1.000  C
  C162     1.0000 0.33774  0.01677  0.34072  Biso   1.000  C
  C163     1.0000 0.38736  0.11203  0.29601  Biso   1.000  C
  H187     1.0000 0.42871  0.17374  0.25941  Biso   1.000  H
  C164     1.0000 0.46987  0.95906  0.18088  Biso   1.000  C
  H188     1.0000 0.48235  0.93629  0.26897  Biso   1.000  H
  H189     1.0000 0.47987  0.07014  0.25069  Biso   1.000  H
  C165     1.0000 0.31332  0.98731  0.29209  Biso   1.000  C
  H190     1.0000 0.33551  0.96098  0.37353  Biso   1.000  H
  H191     1.0000 0.33318  0.09560  0.35587  Biso   1.000  H
  O32      1.0000 0.36893  0.21285  0.29861  Biso   1.000  O
  C166     1.0000 0.47671  0.84504  0.16428  Biso   1.000  C
  C167     1.0000 0.46342  0.03963  0.13719  Biso   1.000  C
  C168     1.0000 0.30632  0.86364  0.28060  Biso   1.000  C
  C169     1.0000 0.29769  0.06675  0.25840  Biso   1.000  C
  C170     1.0000 0.38083  0.31410  0.27131  Biso   1.000  C
  C171     1.0000 0.47703  0.81375  0.10491  Biso   1.000  C
  H192     1.0000 0.48120  0.78811  0.19370  Biso   1.000  H
  C172     1.0000 0.46438  0.00826  0.07848  Biso   1.000  C
  O33      1.0000 0.45690  0.15209  0.15640  Biso   1.000  O
  C173     1.0000 0.28310  0.83374  0.23180  Biso   1.000  C
  O34      1.0000 0.31979  0.78655  0.30984  Biso   1.000  O
  C174     1.0000 0.27571  0.03668  0.20859  Biso   1.000  C
  H193     1.0000 0.30103  0.14671  0.26721  Biso   1.000  H
  H194     1.0000 0.38482  0.29854  0.22920  Biso   1.000  H
  H195     1.0000 0.40176  0.33826  0.29042  Biso   1.000  H
  C175     1.0000 0.35607  0.40744  0.27690  Biso   1.000  C
  C176     1.0000 0.47049  0.89475  0.06179  Biso   1.000  C
  O35      1.0000 0.48349  0.70181  0.08509  Biso   1.000  O
  H196     1.0000 0.46078  0.06570  0.04906  Biso   1.000  H
  C177     1.0000 0.45258  0.24066  0.11301  Biso   1.000  C
  C178     1.0000 0.26888  0.91161  0.19718  Biso   1.000  C
  H197     1.0000 0.27820  0.75404  0.22519  Biso   1.000  H
  O36      1.0000 0.26315  0.11325  0.17771  Biso   1.000  O
  H198     1.0000 0.35396  0.42804  0.31852  Biso   1.000  H
  H199     1.0000 0.33491  0.38015  0.26113  Biso   1.000  H
  H200     1.0000 0.36301  0.47593  0.25474  Biso   1.000  H
  C179     1.0000 0.46832  0.86364  0.99701  Biso   1.000  C
  C180     1.0000 0.49657  0.61898  0.12601  Biso   1.000  C
  H201     1.0000 0.43455  0.21954  0.08518  Biso   1.000  H
  H202     1.0000 0.47286  0.25022  0.09046  Biso   1.000  H
  C181     1.0000 0.44458  0.35077  0.14411  Biso   1.000  C
  C182     1.0000 0.24745  0.88067  0.14428  Biso   1.000  C
  C183     1.0000 0.43215  0.84330  0.97930  Biso   1.000  C
  H203     1.0000 0.48123  0.79254  0.98969  Biso   1.000  H
  H204     1.0000 0.47742  0.92769  0.97327  Biso   1.000  H
  H205     1.0000 0.47933  0.59195  0.15270  Biso   1.000  H
  H206     1.0000 0.51455  0.65409  0.14997  Biso   1.000  H
  C184     1.0000 0.50921  0.51912  0.09029  Biso   1.000  C
  H207     1.0000 0.46361  0.37563  0.16816  Biso   1.000  H
  H208     1.0000 0.42590  0.33800  0.16957  Biso   1.000  H
  H209     1.0000 0.43914  0.41118  0.11513  Biso   1.000  H
  C185     1.0000 0.26859  0.85651  0.09179  Biso   1.000  C
  H210     1.0000 0.23232  0.94577  0.13517  Biso   1.000  H
  H211     1.0000 0.23417  0.81114  0.15327  Biso   1.000  H
  C186     1.0000 0.41832  0.73466  0.98520  Biso   1.000  C
  C187     1.0000 0.41273  0.93525  0.95961  Biso   1.000  C
  H212     1.0000 0.51866  0.46011  0.11685  Biso   1.000  H
  H213     1.0000 0.52609  0.54719  0.06386  Biso   1.000  H
  H214     1.0000 0.49115  0.48488  0.06712  Biso   1.000  H
  C188     1.0000 0.28250  0.74891  0.08258  Biso   1.000  C
  C189     1.0000 0.27457  0.94516  0.05162  Biso   1.000  C
  C190     1.0000 0.38472  0.71615  0.97269  Biso   1.000  C
  H215     1.0000 0.43161  0.67130  0.99793  Biso   1.000  H
  C191     1.0000 0.37939  0.91691  0.94680  Biso   1.000  C
  O37      1.0000 0.42796  0.04094  0.95358  Biso   1.000  O
  O38      1.0000 0.27541  0.66357  0.12358  Biso   1.000  O
  C192     1.0000 0.30221  0.72962  0.03422  Biso   1.000  C
  C193     1.0000 0.29519  0.92717  0.00370  Biso   1.000  C
  H216     1.0000 0.26457  0.01895  0.05660  Biso   1.000  H
  C194     1.0000 0.36528  0.80880  0.95340  Biso   1.000  C
  O39      1.0000 0.36955  0.61116  0.97908  Biso   1.000  O
  H217     1.0000 0.36625  0.98001  0.93327  Biso   1.000  H
  C195     1.0000 0.40883  0.13549  0.93231  Biso   1.000  C
  C196     1.0000 0.29160  0.55336  0.11790  Biso   1.000  C
  H218     1.0000 0.31154  0.65496  0.02832  Biso   1.000  H
  C197     1.0000 0.30829  0.81862  0.99432  Biso   1.000  C
  O40      1.0000 0.30276  0.01234  0.96384  Biso   1.000  O
  C198     1.0000 0.32881  0.79306  0.94111  Biso   1.000  C
  C199     1.0000 0.38889  0.51356  0.99458  Biso   1.000  C
  H219     1.0000 0.39147  0.15461  0.96041  Biso   1.000  H
  H220     1.0000 0.39838  0.11577  0.89381  Biso   1.000  H
  C200     1.0000 0.43194  0.23735  0.92579  Biso   1.000  C
  C201     1.0000 0.27989  0.47949  0.16798  Biso   1.000  C
  H221     1.0000 0.31567  0.56327  0.12050  Biso   1.000  H
  H222     1.0000 0.28575  0.51695  0.07954  Biso   1.000  H
  C202     1.0000 0.29045  0.12706  0.97199  Biso   1.000  C
  H223     1.0000 0.32194  0.84539  0.90852  Biso   1.000  H
  H224     1.0000 0.32468  0.71215  0.92817  Biso   1.000  H
  H225     1.0000 0.40126  0.52877  0.03184  Biso   1.000  H
  C203     1.0000 0.36661  0.41248  0.00189  Biso   1.000  C
  H226     1.0000 0.40477  0.49731  0.96340  Biso   1.000  H
  H227     1.0000 0.44270  0.25395  0.96388  Biso   1.000  H
  H228     1.0000 0.41953  0.30575  0.91253  Biso   1.000  H
  H229     1.0000 0.44851  0.21823  0.89685  Biso   1.000  H
  H230     1.0000 0.28691  0.51460  0.20555  Biso   1.000  H
  H231     1.0000 0.28918  0.40136  0.16494  Biso   1.000  H
  H232     1.0000 0.25593  0.47471  0.16613  Biso   1.000  H
  H233     1.0000 0.26623  0.12698  0.96970  Biso   1.000  H
  C204     1.0000 0.30394  0.20068  0.92411  Biso   1.000  C
  H234     1.0000 0.29758  0.15748  0.01105  Biso   1.000  H
  H235     1.0000 0.35304  0.42500  0.03634  Biso   1.000  H
  H236     1.0000 0.37965  0.34165  0.00749  Biso   1.000  H
  H237     1.0000 0.35250  0.40440  0.96662  Biso   1.000  H
  H238     1.0000 0.32793  0.20042  0.92702  Biso   1.000  H
  H239     1.0000 0.29589  0.28046  0.92808  Biso   1.000  H
  H240     1.0000 0.29687  0.16948  0.88571  Biso   1.000  H
  C205     1.0000 0.74997  0.50391  0.66518  Biso   1.000  C
  C206     1.0000 0.77026  0.41378  0.69218  Biso   1.000  C
  C207     1.0000 0.78087  0.40996  0.66950  Biso   1.000  C
  C208     1.0000 0.76427  0.50400  0.63092  Biso   1.000  C
  H241     1.0000 0.76157  0.53841  0.63215  Biso   1.000  H
  H242     1.0000 0.74549  0.56414  0.69438  Biso   1.000  H
  H243     1.0000 0.72932  0.46993  0.65078  Biso   1.000  H
  H244     1.0000 0.76333  0.57735  0.65298  Biso   1.000  H
  H245     1.0000 0.74195  0.47966  0.61991  Biso   1.000  H
  O41      1.0000 0.77030  0.31053  0.65281  Biso   1.000  O
  H246     1.0000 0.76145  0.39214  0.73094  Biso   1.000  H
  H247     1.0000 0.79287  0.44273  0.69839  Biso   1.000  H
  H248     1.0000 0.80491  0.41370  0.66553  Biso   1.000  H
  H249     1.0000 0.77567  0.42256  0.71138  Biso   1.000  H
  H250     1.0000 0.77686  0.51599  0.59520  Biso   1.000  H
  C209     1.0000 0.78066  0.20737  0.67778  Biso   1.000  C
  C210     1.0000 0.76769  0.10768  0.65360  Biso   1.000  C
  C211     1.0000 0.80338  0.20250  0.72438  Biso   1.000  C
  C212     1.0000 0.74394  0.11403  0.60101  Biso   1.000  C
  C213     1.0000 0.77713  0.00078  0.67751  Biso   1.000  C
  C214     1.0000 0.81347  0.09630  0.74767  Biso   1.000  C
  H251     1.0000 0.81208  0.27255  0.74045  Biso   1.000  H
  C215     1.0000 0.76167  0.10186  0.54398  Biso   1.000  C
  H252     1.0000 0.72750  0.05119  0.60396  Biso   1.000  H
  H253     1.0000 0.73224  0.18929  0.60145  Biso   1.000  H
  H254     1.0000 0.76811  0.93125  0.66144  Biso   1.000  H
  C216     1.0000 0.79926  0.99479  0.72380  Biso   1.000  C
  C217     1.0000 0.83888  0.08891  0.79771  Biso   1.000  C
  C218     1.0000 0.77633  0.19129  0.51689  Biso   1.000  C
  C219     1.0000 0.76362  0.98514  0.51852  Biso   1.000  C
  O42      1.0000 0.81023  0.89223  0.74878  Biso   1.000  O
  H255     1.0000 0.83887  0.16270  0.82004  Biso   1.000  H
  H256     1.0000 0.83264  0.02581  0.82484  Biso   1.000  H
  C220     1.0000 0.87306  0.06614  0.77630  Biso   1.000  C
  H257     1.0000 0.77493  0.26699  0.53336  Biso   1.000  H
  C221     1.0000 0.79457  0.17417  0.46228  Biso   1.000  C
  O43      1.0000 0.75115  0.90049  0.54239  Biso   1.000  O
  C222     1.0000 0.78119  0.96993  0.46338  Biso   1.000  C
  C223     1.0000 0.79543  0.78672  0.72878  Biso   1.000  C
  C224     1.0000 0.89174  0.15687  0.75340  Biso   1.000  C
  C225     1.0000 0.88677  0.95602  0.77842  Biso   1.000  C
  O44      1.0000 0.80840  0.25752  0.43951  Biso   1.000  O
  C226     1.0000 0.79586  0.05667  0.43708  Biso   1.000  C
  H258     1.0000 0.78202  0.89475  0.44620  Biso   1.000  H
  H259     1.0000 0.79996  0.77394  0.68663  Biso   1.000  H
  H260     1.0000 0.77142  0.78994  0.73349  Biso   1.000  H
  C227     1.0000 0.80975  0.69147  0.76498  Biso   1.000  C
  O45      1.0000 0.87737  0.26517  0.75331  Biso   1.000  O
  C228     1.0000 0.92332  0.13549  0.73389  Biso   1.000  C
  H261     1.0000 0.87464  0.89371  0.79454  Biso   1.000  H
  C229     1.0000 0.91799  0.93473  0.75750  Biso   1.000  C
  C230     1.0000 0.81669  0.04102  0.38238  Biso   1.000  C
  H262     1.0000 0.83292  0.68225  0.75582  Biso   1.000  H
  H263     1.0000 0.79803  0.61898  0.75631  Biso   1.000  H
  H264     1.0000 0.80773  0.71041  0.80682  Biso   1.000  H
  C231     1.0000 0.89598  0.36086  0.73261  Biso   1.000  C
  C232     1.0000 0.93667  0.02486  0.73459  Biso   1.000  C
  H265     1.0000 0.93599  0.19851  0.71975  Biso   1.000  H
  O46      1.0000 0.93283  0.82661  0.75741  Biso   1.000  O
  H266     1.0000 0.81522  0.11185  0.35781  Biso   1.000  H
  C233     1.0000 0.85199  0.01834  0.39951  Biso   1.000  C
  H267     1.0000 0.80806  0.97497  0.35877  Biso   1.000  H
  H268     1.0000 0.90355  0.34521  0.69227  Biso   1.000  H
  H269     1.0000 0.91541  0.37372  0.75864  Biso   1.000  H
  C234     1.0000 0.87436  0.46602  0.73261  Biso   1.000  C
  C235     1.0000 0.96986  0.00348  0.70830  Biso   1.000  C
  C236     1.0000 0.91876  0.73779  0.79308  Biso   1.000  C
  C237     1.0000 0.87463  0.10777  0.40079  Biso   1.000  C
  C238     1.0000 0.86208  0.90744  0.41568  Biso   1.000  C
  H270     1.0000 0.85537  0.45281  0.70636  Biso   1.000  H
  H271     1.0000 0.88668  0.53346  0.71887  Biso   1.000  H
  H272     1.0000 0.86692  0.48053  0.77269  Biso   1.000  H
  H273     1.0000 0.98460  0.06927  0.71825  Biso   1.000  H
  H274     1.0000 0.97953  0.93212  0.72574  Biso   1.000  H
  C239     1.0000 0.96722  0.99018  0.64188  Biso   1.000  C
  H275     1.0000 0.89694  0.71502  0.77718  Biso   1.000  H
  H276     1.0000 0.91634  0.76569  0.83404  Biso   1.000  H
  C240     1.0000 0.94227  0.63610  0.79141  Biso   1.000  C
  H277     1.0000 0.86792  0.18382  0.38938  Biso   1.000  H
  C241     1.0000 0.90704  0.08856  0.41841  Biso   1.000  C
  O47      1.0000 0.83845  0.82209  0.41489  Biso   1.000  O
  C242     1.0000 0.89457  0.88771  0.43250  Biso   1.000  C
  C243     1.0000 0.96930  0.08587  0.60458  Biso   1.000  C
  C244     1.0000 0.96056  0.88250  0.61678  Biso   1.000  C
  H278     1.0000 0.94542  0.61281  0.75041  Biso   1.000  H
  H279     1.0000 0.93322  0.57066  0.81334  Biso   1.000  H
  H280     1.0000 0.96335  0.65896  0.80925  Biso   1.000  H
  O48      1.0000 0.93042  0.17347  0.41991  Biso   1.000  O
  C245     1.0000 0.91750  0.97766  0.43391  Biso   1.000  C
  C246     1.0000 0.84758  0.70754  0.43219  Biso   1.000  C
  H281     1.0000 0.90131  0.81140  0.44316  Biso   1.000  H
  C247     1.0000 0.96473  0.07318  0.54389  Biso   1.000  C
  O49      1.0000 0.97615  0.19103  0.63180  Biso   1.000  O
  C248     1.0000 0.95625  0.86963  0.55499  Biso   1.000  C
  H282     1.0000 0.95884  0.81618  0.64140  Biso   1.000  H
  C249     1.0000 0.92198  0.28568  0.39921  Biso   1.000  C
  C250     1.0000 0.95292  0.95533  0.45281  Biso   1.000  C
  H283     1.0000 0.85747  0.70772  0.47236  Biso   1.000  H
  H284     1.0000 0.86361  0.67487  0.40462  Biso   1.000  H
  C251     1.0000 0.81578  0.63610  0.43048  Biso   1.000  C
  C252     1.0000 0.95802  0.96637  0.51852  Biso   1.000  C
  H285     1.0000 0.96625  0.13975  0.51940  Biso   1.000  H
  C253     1.0000 0.98037  0.29141  0.59581  Biso   1.000  C
  O50      1.0000 0.94971  0.76604  0.52768  Biso   1.000  O
  H286     1.0000 0.90681  0.32383  0.42669  Biso   1.000  H
  H287     1.0000 0.91100  0.28064  0.35996  Biso   1.000  H
  C254     1.0000 0.95366  0.35486  0.39559  Biso   1.000  C
  H288     1.0000 0.96728  0.01139  0.43281  Biso   1.000  H
  H289     1.0000 0.95928  0.87615  0.44039  Biso   1.000  H
  H290     1.0000 0.80556  0.64140  0.39115  Biso   1.000  H
  H291     1.0000 0.80078  0.66670  0.45968  Biso   1.000  H
  H292     1.0000 0.82086  0.55467  0.43951  Biso   1.000  H
  H293     1.0000 0.95996  0.30871  0.57313  Biso   1.000  H
  H294     1.0000 0.99826  0.27881  0.56776  Biso   1.000  H
  C255     1.0000 0.98886  0.39006  0.63721  Biso   1.000  C
  C256     1.0000 0.94646  0.66522  0.56269  Biso   1.000  C
  H295     1.0000 0.96847  0.31601  0.36846  Biso   1.000  H
  H296     1.0000 0.96418  0.35955  0.43475  Biso   1.000  H
  H297     1.0000 0.94885  0.43343  0.38115  Biso   1.000  H
  H298     1.0000 0.99119  0.46211  0.61466  Biso   1.000  H
  H299     1.0000 0.97130  0.39953  0.66562  Biso   1.000  H
  H300     1.0000 0.00945  0.37285  0.65831  Biso   1.000  H
  H301     1.0000 0.92800  0.67347  0.58978  Biso   1.000  H
  H302     1.0000 0.96679  0.65105  0.58634  Biso   1.000  H
  C257     1.0000 0.94026  0.56710  0.52002  Biso   1.000  C
  H303     1.0000 0.95450  0.57613  0.48610  Biso   1.000  H
  H304     1.0000 0.91735  0.56849  0.50663  Biso   1.000  H
  H305     1.0000 0.94506  0.49287  0.53957  Biso   1.000  H
  C258     1.0000 0.24999  0.49609  0.33482  Biso   1.000  C
  C259     1.0000 0.22969  0.58622  0.30782  Biso   1.000  C
  H306     1.0000 0.23839  0.46150  0.36785  Biso   1.000  H
  H307     1.0000 0.25447  0.43586  0.30561  Biso   1.000  H
  H308     1.0000 0.27062  0.53007  0.34922  Biso   1.000  H
  C260     1.0000 0.21909  0.58995  0.33050  Biso   1.000  C
  C261     1.0000 0.23569  0.49600  0.36908  Biso   1.000  C
  H309     1.0000 0.23663  0.42256  0.34702  Biso   1.000  H
  H310     1.0000 0.25801  0.52034  0.38009  Biso   1.000  H
  O51      1.0000 0.22963  0.68947  0.34719  Biso   1.000  O
  H311     1.0000 0.23850  0.60777  0.26906  Biso   1.000  H
  H312     1.0000 0.20707  0.55727  0.30161  Biso   1.000  H
  H313     1.0000 0.19505  0.58630  0.33446  Biso   1.000  H
  H314     1.0000 0.22426  0.57744  0.28861  Biso   1.000  H
  H315     1.0000 0.22309  0.48392  0.40480  Biso   1.000  H
  C262     1.0000 0.21928  0.79254  0.32222  Biso   1.000  C
  C263     1.0000 0.23226  0.89232  0.34640  Biso   1.000  C
  C264     1.0000 0.19657  0.79750  0.27558  Biso   1.000  C
  C265     1.0000 0.25600  0.88597  0.39899  Biso   1.000  C
  C266     1.0000 0.22283  0.99913  0.32248  Biso   1.000  C
  C267     1.0000 0.18646  0.90370  0.25228  Biso   1.000  C
  H316     1.0000 0.18788  0.72736  0.25955  Biso   1.000  H
  C268     1.0000 0.23828  0.89805  0.45598  Biso   1.000  C
  H317     1.0000 0.27246  0.94881  0.39603  Biso   1.000  H
  H318     1.0000 0.26772  0.81071  0.39855  Biso   1.000  H
  H319     1.0000 0.23185  0.06875  0.33856  Biso   1.000  H
  C269     1.0000 0.20070  0.00521  0.27619  Biso   1.000  C
  C270     1.0000 0.16105  0.91109  0.20229  Biso   1.000  C
  C271     1.0000 0.22360  0.80871  0.48311  Biso   1.000  C
  C272     1.0000 0.23633  0.01486  0.48148  Biso   1.000  C
  O52      1.0000 0.18973  0.10777  0.25118  Biso   1.000  O
  H320     1.0000 0.16108  0.83722  0.17996  Biso   1.000  H
  H321     1.0000 0.16729  0.97419  0.17516  Biso   1.000  H
  C273     1.0000 0.12690  0.93386  0.22369  Biso   1.000  C
  H322     1.0000 0.22503  0.73301  0.46664  Biso   1.000  H
  C274     1.0000 0.20539  0.82574  0.53768  Biso   1.000  C
  O53      1.0000 0.24878  0.09951  0.45761  Biso   1.000  O
  C275     1.0000 0.21874  0.03007  0.53658  Biso   1.000  C
  C276     1.0000 0.20452  0.21328  0.27122  Biso   1.000  C
  C277     1.0000 0.10819  0.84304  0.24660  Biso   1.000  C
  C278     1.0000 0.11316  0.04398  0.22158  Biso   1.000  C
  O54      1.0000 0.19153  0.74248  0.56049  Biso   1.000  O
  C279     1.0000 0.20407  0.94325  0.56291  Biso   1.000  C
  H323     1.0000 0.21793  0.10525  0.55380  Biso   1.000  H
  H324     1.0000 0.19999  0.22606  0.31337  Biso   1.000  H
  H325     1.0000 0.22853  0.20998  0.26646  Biso   1.000  H
  C280     1.0000 0.19018  0.30845  0.23501  Biso   1.000  C
  O55      1.0000 0.12259  0.73475  0.24669  Biso   1.000  O
  C281     1.0000 0.07661  0.86451  0.26611  Biso   1.000  C
  H326     1.0000 0.12532  0.10629  0.20546  Biso   1.000  H
  C282     1.0000 0.08197  0.06527  0.24250  Biso   1.000  C
  C283     1.0000 0.18327  0.95898  0.61762  Biso   1.000  C
  H327     1.0000 0.16702  0.31775  0.24417  Biso   1.000  H
  H328     1.0000 0.20190  0.38102  0.24369  Biso   1.000  H
  H329     1.0000 0.19220  0.28950  0.19313  Biso   1.000  H
  C284     1.0000 0.10397  0.63906  0.26739  Biso   1.000  C
  C285     1.0000 0.06326  0.97506  0.26540  Biso   1.000  C
  H330     1.0000 0.06396  0.80149  0.28025  Biso   1.000  H
  O56      1.0000 0.06711  0.17339  0.24259  Biso   1.000  O
  H331     1.0000 0.18471  0.88806  0.64219  Biso   1.000  H
  C286     1.0000 0.14794  0.98166  0.60048  Biso   1.000  C
  H332     1.0000 0.19187  0.02494  0.64122  Biso   1.000  H
  H333     1.0000 0.09638  0.65479  0.30773  Biso   1.000  H
  H334     1.0000 0.08452  0.62628  0.24136  Biso   1.000  H
  C287     1.0000 0.12559  0.53398  0.26739  Biso   1.000  C
  C288     1.0000 0.03008  0.99644  0.29170  Biso   1.000  C
  C289     1.0000 0.08117  0.26212  0.20691  Biso   1.000  C
  C290     1.0000 0.12533  0.89214  0.59921  Biso   1.000  C
  C291     1.0000 0.13787  0.09256  0.58427  Biso   1.000  C
  H335     1.0000 0.14458  0.54719  0.29363  Biso   1.000  H
  H336     1.0000 0.11328  0.46645  0.28113  Biso   1.000  H
  H337     1.0000 0.13302  0.51947  0.22731  Biso   1.000  H
  H338     1.0000 0.01536  0.93064  0.28174  Biso   1.000  H
  H339     1.0000 0.02040  0.06788  0.27426  Biso   1.000  H
  C292     1.0000 0.03273  0.00973  0.35811  Biso   1.000  C
  H340     1.0000 0.10302  0.28498  0.22281  Biso   1.000  H
  H341     1.0000 0.08359  0.23431  0.16595  Biso   1.000  H
  C293     1.0000 0.05769  0.36390  0.20859  Biso   1.000  C
  H342     1.0000 0.13204  0.81618  0.61061  Biso   1.000  H
  C294     1.0000 0.09291  0.91135  0.58159  Biso   1.000  C
  O57      1.0000 0.16148  0.17791  0.58511  Biso   1.000  O
  C295     1.0000 0.10539  0.11229  0.56749  Biso   1.000  C
  C296     1.0000 0.03064  0.91404  0.39542  Biso   1.000  C
  C297     1.0000 0.03939  0.11750  0.38322  Biso   1.000  C
  H343     1.0000 0.05451  0.38719  0.24959  Biso   1.000  H
  H344     1.0000 0.06671  0.42925  0.18665  Biso   1.000  H
  H345     1.0000 0.03658  0.34104  0.19075  Biso   1.000  H
  O58      1.0000 0.06951  0.82644  0.58009  Biso   1.000  O
  C298     1.0000 0.08246  0.02225  0.56609  Biso   1.000  C
  C299     1.0000 0.15238  0.29246  0.56780  Biso   1.000  C
  H346     1.0000 0.09864  0.18860  0.55684  Biso   1.000  H
  O59      1.0000 0.02378  0.80897  0.36820  Biso   1.000  O
  C300     1.0000 0.03523  0.92673  0.45611  Biso   1.000  C
  H347     1.0000 0.04111  0.18382  0.35855  Biso   1.000  H
  C301     1.0000 0.04368  0.13037  0.44501  Biso   1.000  C
  C302     1.0000 0.07798  0.71432  0.60079  Biso   1.000  C
  C303     1.0000 0.04701  0.04467  0.54719  Biso   1.000  C
  H348     1.0000 0.14246  0.29228  0.52764  Biso   1.000  H
  H349     1.0000 0.13635  0.32513  0.59537  Biso   1.000  H
  C304     1.0000 0.18418  0.36390  0.56948  Biso   1.000  C
  C305     1.0000 0.01956  0.70859  0.40418  Biso   1.000  C
  H350     1.0000 0.03368  0.86025  0.48060  Biso   1.000  H
  C306     1.0000 0.04191  0.03355  0.48148  Biso   1.000  C
  O60      1.0000 0.05024  0.23396  0.47232  Biso   1.000  O
  H351     1.0000 0.09315  0.67608  0.57331  Biso   1.000  H
  H352     1.0000 0.08893  0.71928  0.64003  Biso   1.000  H
  C307     1.0000 0.04627  0.64505  0.60440  Biso   1.000  C
  H353     1.0000 0.03265  0.98853  0.56719  Biso   1.000  H
  H354     1.0000 0.04066  0.12385  0.55961  Biso   1.000  H
  H355     1.0000 0.19440  0.35860  0.60885  Biso   1.000  H
  H356     1.0000 0.19918  0.33330  0.54032  Biso   1.000  H
  H357     1.0000 0.17909  0.44533  0.56049  Biso   1.000  H
  H358     1.0000 0.03997  0.69120  0.42687  Biso   1.000  H
  H359     1.0000 0.00170  0.72119  0.43224  Biso   1.000  H
  C308     1.0000 0.01108  0.60986  0.36278  Biso   1.000  C
  C309     1.0000 0.05347  0.33478  0.43730  Biso   1.000  C
  H360     1.0000 0.03148  0.68399  0.63153  Biso   1.000  H
  H361     1.0000 0.03578  0.64045  0.56525  Biso   1.000  H
  H362     1.0000 0.05110  0.56657  0.61885  Biso   1.000  H
  H363     1.0000 0.00877  0.53789  0.38533  Biso   1.000  H
  H364     1.0000 0.02864  0.60047  0.33437  Biso   1.000  H
  H365     1.0000 0.99051  0.62715  0.34169  Biso   1.000  H
  H366     1.0000 0.07195  0.32653  0.41022  Biso   1.000  H
  H367     1.0000 0.03314  0.34886  0.41365  Biso   1.000  H
  C310     1.0000 0.05967  0.43290  0.47998  Biso   1.000  C
  H368     1.0000 0.04544  0.42387  0.51389  Biso   1.000  H
  H369     1.0000 0.08261  0.43143  0.49337  Biso   1.000  H
  H370     1.0000 0.05489  0.50713  0.46043  Biso   1.000  H
  C311     1.0000 0.77714  0.49922  0.17749  Biso   1.000  C
  C312     1.0000 0.76770  0.39232  0.15358  Biso   1.000  C
  H371     1.0000 0.76812  0.56875  0.16146  Biso   1.000  H
  C313     1.0000 0.79927  0.50521  0.22378  Biso   1.000  C
  C314     1.0000 0.74397  0.38597  0.10099  Biso   1.000  C
  C315     1.0000 0.78069  0.29263  0.17780  Biso   1.000  C
  O61      1.0000 0.81026  0.60777  0.24880  Biso   1.000  O
  C316     1.0000 0.81350  0.40370  0.24770  Biso   1.000  C
  C317     1.0000 0.76168  0.39805  0.04400  Biso   1.000  C
  H372     1.0000 0.72753  0.44881  0.10394  Biso   1.000  H
  H373     1.0000 0.73227  0.31071  0.10143  Biso   1.000  H
  O62      1.0000 0.77033  0.18947  0.15279  Biso   1.000  O
  C318     1.0000 0.80339  0.29750  0.22440  Biso   1.000  C
  C319     1.0000 0.79544  0.71328  0.22880  Biso   1.000  C
  C320     1.0000 0.83892  0.41109  0.29769  Biso   1.000  C
  C321     1.0000 0.76363  0.51486  0.01850  Biso   1.000  C
  C322     1.0000 0.77637  0.30871  0.01691  Biso   1.000  C
  C323     1.0000 0.77027  0.08622  0.19220  Biso   1.000  C
  C324     1.0000 0.78088  0.09004  0.16948  Biso   1.000  C
  H374     1.0000 0.81212  0.22745  0.24047  Biso   1.000  H
  H375     1.0000 0.79997  0.72606  0.18665  Biso   1.000  H
  H376     1.0000 0.77143  0.71006  0.23352  Biso   1.000  H
  C325     1.0000 0.80978  0.80845  0.26501  Biso   1.000  C
  H377     1.0000 0.83888  0.33730  0.32002  Biso   1.000  H
  H378     1.0000 0.83268  0.47419  0.32486  Biso   1.000  H
  C326     1.0000 0.87309  0.43386  0.27628  Biso   1.000  C
  O63      1.0000 0.75118  0.59951  0.04241  Biso   1.000  O
  C327     1.0000 0.78117  0.53007  0.96340  Biso   1.000  C
  H379     1.0000 0.77494  0.23301  0.03338  Biso   1.000  H
  C328     1.0000 0.79453  0.32583  0.96230  Biso   1.000  C
  H380     1.0000 0.76146  0.10786  0.23092  Biso   1.000  H
  H381     1.0000 0.79290  0.05727  0.19841  Biso   1.000  H
  C329     1.0000 0.74998  0.99609  0.16521  Biso   1.000  C
  C330     1.0000 0.76428  0.99600  0.13090  Biso   1.000  C
  H382     1.0000 0.80492  0.08630  0.16556  Biso   1.000  H
  H383     1.0000 0.77571  0.07744  0.21141  Biso   1.000  H
  H384     1.0000 0.83295  0.81775  0.25585  Biso   1.000  H
  H385     1.0000 0.79807  0.88102  0.25633  Biso   1.000  H
  H386     1.0000 0.80777  0.78950  0.30685  Biso   1.000  H
  C331     1.0000 0.88680  0.54398  0.27840  Biso   1.000  C
  C332     1.0000 0.89178  0.34313  0.25338  Biso   1.000  C
  C333     1.0000 0.79585  0.44325  0.93711  Biso   1.000  C
  H387     1.0000 0.78201  0.60525  0.94618  Biso   1.000  H
  O64      1.0000 0.80839  0.24248  0.93948  Biso   1.000  O
  H388     1.0000 0.72935  0.03007  0.15080  Biso   1.000  H
  H389     1.0000 0.74196  0.02034  0.11993  Biso   1.000  H
  H390     1.0000 0.76160  0.96159  0.13213  Biso   1.000  H
  H391     1.0000 0.74550  0.93586  0.19441  Biso   1.000  H
  H392     1.0000 0.76334  0.92265  0.15301  Biso   1.000  H
  H393     1.0000 0.77687  0.98401  0.09518  Biso   1.000  H
  H394     1.0000 0.87465  0.60629  0.29452  Biso   1.000  H
  C334     1.0000 0.91800  0.56527  0.25752  Biso   1.000  C
  O65      1.0000 0.87740  0.23483  0.25329  Biso   1.000  O
  C335     1.0000 0.92336  0.36451  0.23391  Biso   1.000  C
  C336     1.0000 0.81667  0.45898  0.88241  Biso   1.000  C
  O66      1.0000 0.93286  0.67339  0.25739  Biso   1.000  O
  C337     1.0000 0.93671  0.47506  0.23462  Biso   1.000  C
  C338     1.0000 0.89599  0.13906  0.23259  Biso   1.000  C
  H395     1.0000 0.93600  0.30149  0.21977  Biso   1.000  H
  H396     1.0000 0.80805  0.52503  0.85875  Biso   1.000  H
  H397     1.0000 0.81521  0.38806  0.85779  Biso   1.000  H
  C339     1.0000 0.85197  0.48166  0.89949  Biso   1.000  C
  C340     1.0000 0.91880  0.76221  0.29311  Biso   1.000  C
  C341     1.0000 0.96989  0.49652  0.20828  Biso   1.000  C
  H398     1.0000 0.90358  0.15479  0.19229  Biso   1.000  H
  H399     1.0000 0.91544  0.12628  0.25866  Biso   1.000  H
  C342     1.0000 0.87437  0.03398  0.23259  Biso   1.000  C
  C343     1.0000 0.86205  0.59256  0.91570  Biso   1.000  C
  C344     1.0000 0.87461  0.39223  0.90082  Biso   1.000  C
  H400     1.0000 0.89695  0.78498  0.27721  Biso   1.000  H
  H401     1.0000 0.91638  0.73431  0.33407  Biso   1.000  H
  C345     1.0000 0.94228  0.86390  0.29139  Biso   1.000  C
  H402     1.0000 0.97956  0.56788  0.22572  Biso   1.000  H
  H403     1.0000 0.98461  0.43064  0.21823  Biso   1.000  H
  C346     1.0000 0.96723  0.50982  0.14191  Biso   1.000  C
  H404     1.0000 0.85538  0.04719  0.20634  Biso   1.000  H
  H405     1.0000 0.86695  0.01947  0.27267  Biso   1.000  H
  H406     1.0000 0.88668  0.96645  0.21885  Biso   1.000  H
  O67      1.0000 0.83843  0.67791  0.91491  Biso   1.000  O
  C347     1.0000 0.89453  0.61229  0.93248  Biso   1.000  C
  H407     1.0000 0.86788  0.31618  0.88941  Biso   1.000  H
  C348     1.0000 0.90701  0.41135  0.91839  Biso   1.000  C
  H408     1.0000 0.94545  0.88719  0.25038  Biso   1.000  H
  H409     1.0000 0.93325  0.92934  0.31337  Biso   1.000  H
  H410     1.0000 0.96339  0.84104  0.30927  Biso   1.000  H
  C349     1.0000 0.96057  0.61750  0.11680  Biso   1.000  C
  C350     1.0000 0.96933  0.41413  0.10460  Biso   1.000  C
  C351     1.0000 0.84754  0.79246  0.93222  Biso   1.000  C
  C352     1.0000 0.91746  0.52225  0.93389  Biso   1.000  C
  H411     1.0000 0.90127  0.68860  0.94318  Biso   1.000  H
  O68      1.0000 0.93041  0.32653  0.91989  Biso   1.000  O
  C353     1.0000 0.95629  0.63037  0.05501  Biso   1.000  C
  H412     1.0000 0.95885  0.68382  0.14142  Biso   1.000  H
  C354     1.0000 0.96474  0.42682  0.04391  Biso   1.000  C
  O69      1.0000 0.97619  0.30897  0.13182  Biso   1.000  O
  H413     1.0000 0.85745  0.79228  0.97239  Biso   1.000  H
  H414     1.0000 0.86357  0.82513  0.90465  Biso   1.000  H
  C355     1.0000 0.81574  0.86390  0.93050  Biso   1.000  C
  C356     1.0000 0.95291  0.54467  0.95279  Biso   1.000  C
  C357     1.0000 0.92194  0.21432  0.89919  Biso   1.000  C
  C358     1.0000 0.95805  0.53355  0.01850  Biso   1.000  C
  O70      1.0000 0.94972  0.73396  0.02770  Biso   1.000  O
  H415     1.0000 0.96629  0.36025  0.01942  Biso   1.000  H
  C359     1.0000 0.98041  0.20859  0.09579  Biso   1.000  C
  H416     1.0000 0.80552  0.85860  0.89113  Biso   1.000  H
  H417     1.0000 0.80074  0.83330  0.95970  Biso   1.000  H
  H418     1.0000 0.82082  0.94533  0.93948  Biso   1.000  H
  H419     1.0000 0.95926  0.62385  0.94037  Biso   1.000  H
  H420     1.0000 0.96727  0.48853  0.93279  Biso   1.000  H
  H421     1.0000 0.90677  0.17608  0.92667  Biso   1.000  H
  H422     1.0000 0.91099  0.21928  0.85994  Biso   1.000  H
  C360     1.0000 0.95365  0.14505  0.89562  Biso   1.000  C
  C361     1.0000 0.94649  0.83478  0.06272  Biso   1.000  C
  H423     1.0000 0.95999  0.19120  0.07316  Biso   1.000  H
  H424     1.0000 0.99827  0.22119  0.06778  Biso   1.000  H
  C362     1.0000 0.98889  0.10986  0.13719  Biso   1.000  C
  H425     1.0000 0.96846  0.18399  0.86844  Biso   1.000  H
  H426     1.0000 0.96414  0.14045  0.93473  Biso   1.000  H
  H427     1.0000 0.94881  0.06657  0.88113  Biso   1.000  H
  H428     1.0000 0.92801  0.82653  0.08980  Biso   1.000  H
  H429     1.0000 0.96682  0.84895  0.08632  Biso   1.000  H
  C363     1.0000 0.94030  0.93290  0.02000  Biso   1.000  C
  H430     1.0000 0.99120  0.03789  0.11464  Biso   1.000  H
  H431     1.0000 0.97133  0.10047  0.16565  Biso   1.000  H
  H432     1.0000 0.00948  0.12715  0.15833  Biso   1.000  H
  H433     1.0000 0.91736  0.93143  0.00665  Biso   1.000  H
  H434     1.0000 0.95448  0.92387  0.98613  Biso   1.000  H
  H435     1.0000 0.94510  0.00713  0.03955  Biso   1.000  H
  C364     1.0000 0.22279  0.50078  0.82250  Biso   1.000  C
  C365     1.0000 0.20066  0.49479  0.77621  Biso   1.000  C
  C366     1.0000 0.23223  0.60768  0.84638  Biso   1.000  C
  H436     1.0000 0.23181  0.43125  0.83854  Biso   1.000  H
  O71      1.0000 0.18969  0.39223  0.75120  Biso   1.000  O
  C367     1.0000 0.18645  0.59630  0.75230  Biso   1.000  C
  C368     1.0000 0.25599  0.61394  0.89901  Biso   1.000  C
  C369     1.0000 0.21927  0.70737  0.82220  Biso   1.000  C
  C370     1.0000 0.20449  0.28672  0.77119  Biso   1.000  C
  C371     1.0000 0.19654  0.70250  0.77560  Biso   1.000  C
  C372     1.0000 0.16104  0.58891  0.70231  Biso   1.000  C
  C373     1.0000 0.23825  0.60186  0.95600  Biso   1.000  C
  H437     1.0000 0.27243  0.55119  0.89606  Biso   1.000  H
  H438     1.0000 0.26768  0.68929  0.89857  Biso   1.000  H
  O72      1.0000 0.22960  0.81045  0.84721  Biso   1.000  O
  C374     1.0000 0.19017  0.19147  0.73499  Biso   1.000  C
  H439     1.0000 0.19996  0.27386  0.81334  Biso   1.000  H
  H440     1.0000 0.22850  0.28994  0.76648  Biso   1.000  H
  H441     1.0000 0.18784  0.77255  0.75952  Biso   1.000  H
  H442     1.0000 0.16105  0.66270  0.67998  Biso   1.000  H
  H443     1.0000 0.16728  0.52581  0.67514  Biso   1.000  H
  C375     1.0000 0.12686  0.56605  0.72372  Biso   1.000  C
  C376     1.0000 0.23630  0.48505  0.98150  Biso   1.000  C
  C377     1.0000 0.22359  0.69129  0.98308  Biso   1.000  C
  C378     1.0000 0.22966  0.91378  0.80779  Biso   1.000  C
  C379     1.0000 0.21905  0.90996  0.83048  Biso   1.000  C
  H444     1.0000 0.16698  0.18217  0.74415  Biso   1.000  H
  H445     1.0000 0.20189  0.11889  0.74367  Biso   1.000  H
  H446     1.0000 0.19219  0.21041  0.69315  Biso   1.000  H
  C380     1.0000 0.11315  0.45602  0.72160  Biso   1.000  C
  C381     1.0000 0.10818  0.65687  0.74657  Biso   1.000  C
  O73      1.0000 0.24875  0.40049  0.95758  Biso   1.000  O
  C382     1.0000 0.21878  0.46993  0.03660  Biso   1.000  C
  H447     1.0000 0.22499  0.76690  0.96661  Biso   1.000  H
  C383     1.0000 0.20541  0.67417  0.03770  Biso   1.000  C
  H448     1.0000 0.23847  0.89214  0.76908  Biso   1.000  H
  H449     1.0000 0.20706  0.94273  0.80158  Biso   1.000  H
  C384     1.0000 0.24996  0.00391  0.83479  Biso   1.000  C
  C385     1.0000 0.23565  0.00400  0.86910  Biso   1.000  C
  H450     1.0000 0.19501  0.91361  0.83444  Biso   1.000  H
  H451     1.0000 0.22425  0.92256  0.78859  Biso   1.000  H
  H452     1.0000 0.12529  0.39371  0.70544  Biso   1.000  H
  C386     1.0000 0.08193  0.43473  0.74248  Biso   1.000  C
  O74      1.0000 0.12255  0.76517  0.74671  Biso   1.000  O
  C387     1.0000 0.07660  0.63549  0.76608  Biso   1.000  C
  C388     1.0000 0.20411  0.55667  0.06289  Biso   1.000  C
  H453     1.0000 0.21795  0.39475  0.05382  Biso   1.000  H
  O75      1.0000 0.19157  0.75752  0.06051  Biso   1.000  O
  H454     1.0000 0.27061  0.96993  0.84919  Biso   1.000  H
  H455     1.0000 0.25797  0.97966  0.88007  Biso   1.000  H
  H456     1.0000 0.23835  0.03841  0.86787  Biso   1.000  H
  H457     1.0000 0.25443  0.06414  0.80559  Biso   1.000  H
  H458     1.0000 0.23660  0.07735  0.84699  Biso   1.000  H
  H459     1.0000 0.22306  0.01599  0.90482  Biso   1.000  H
  O76      1.0000 0.06707  0.32661  0.74261  Biso   1.000  O
  C389     1.0000 0.06325  0.52486  0.76538  Biso   1.000  C
  C390     1.0000 0.10394  0.86086  0.76741  Biso   1.000  C
  H460     1.0000 0.06393  0.69851  0.78022  Biso   1.000  H
  C391     1.0000 0.18328  0.54102  0.11759  Biso   1.000  C
  C392     1.0000 0.08116  0.23779  0.70689  Biso   1.000  C
  C393     1.0000 0.03007  0.50348  0.79167  Biso   1.000  C
  H461     1.0000 0.09637  0.84521  0.80771  Biso   1.000  H
  H462     1.0000 0.08451  0.87363  0.74133  Biso   1.000  H
  C394     1.0000 0.12556  0.96602  0.76741  Biso   1.000  C
  H463     1.0000 0.19191  0.47497  0.14124  Biso   1.000  H
  H464     1.0000 0.18475  0.61185  0.14221  Biso   1.000  H
  C395     1.0000 0.14798  0.51825  0.10050  Biso   1.000  C
  H465     1.0000 0.10298  0.21502  0.72279  Biso   1.000  H
  H466     1.0000 0.08355  0.26560  0.66593  Biso   1.000  H
  C396     1.0000 0.05766  0.13610  0.70861  Biso   1.000  C
  H467     1.0000 0.02039  0.43204  0.77428  Biso   1.000  H
  H468     1.0000 0.01532  0.56927  0.78176  Biso   1.000  H
  C397     1.0000 0.03270  0.49018  0.85809  Biso   1.000  C
  H469     1.0000 0.14455  0.95281  0.79366  Biso   1.000  H
  H470     1.0000 0.13301  0.98044  0.72733  Biso   1.000  H
  H471     1.0000 0.11325  0.03346  0.78115  Biso   1.000  H
  C398     1.0000 0.13789  0.40735  0.08430  Biso   1.000  C
  C399     1.0000 0.12534  0.60777  0.09918  Biso   1.000  C
  H472     1.0000 0.05450  0.11281  0.74961  Biso   1.000  H
  H473     1.0000 0.06670  0.07066  0.68663  Biso   1.000  H
  H474     1.0000 0.03654  0.15887  0.69073  Biso   1.000  H
  C400     1.0000 0.03936  0.38250  0.88320  Biso   1.000  C
  C401     1.0000 0.03063  0.58587  0.89539  Biso   1.000  C
  O77      1.0000 0.16152  0.32209  0.08509  Biso   1.000  O
  C402     1.0000 0.10541  0.38771  0.06752  Biso   1.000  C
  H475     1.0000 0.13205  0.68373  0.11059  Biso   1.000  H
  C403     1.0000 0.09293  0.58856  0.08161  Biso   1.000  C
  H476     1.0000 0.04108  0.31618  0.85857  Biso   1.000  H
  C404     1.0000 0.04367  0.36963  0.94499  Biso   1.000  C
  O78      1.0000 0.02377  0.69094  0.86818  Biso   1.000  O
  C405     1.0000 0.03519  0.57318  0.95609  Biso   1.000  C
  C406     1.0000 0.15239  0.20746  0.06778  Biso   1.000  C
  C407     1.0000 0.08247  0.47766  0.06611  Biso   1.000  C
  H477     1.0000 0.09866  0.31140  0.05681  Biso   1.000  H
  O79      1.0000 0.06955  0.67347  0.08011  Biso   1.000  O
  O80      1.0000 0.05021  0.26604  0.97229  Biso   1.000  O
  C408     1.0000 0.04190  0.46637  0.98150  Biso   1.000  C
  C409     1.0000 0.01955  0.79141  0.90420  Biso   1.000  C
  H478     1.0000 0.03367  0.63975  0.98057  Biso   1.000  H
  H479     1.0000 0.14250  0.20772  0.02761  Biso   1.000  H
  H480     1.0000 0.13636  0.17487  0.09535  Biso   1.000  H
  C410     1.0000 0.18419  0.13610  0.06950  Biso   1.000  C
  C411     1.0000 0.04705  0.45533  0.04721  Biso   1.000  C
  C412     1.0000 0.07799  0.78568  0.10081  Biso   1.000  C
  C413     1.0000 0.05346  0.16522  0.93728  Biso   1.000  C
  H481     1.0000 0.03996  0.80871  0.92684  Biso   1.000  H
  H482     1.0000 0.00167  0.77872  0.93221  Biso   1.000  H
  C414     1.0000 0.01107  0.89006  0.86280  Biso   1.000  C
  H483     1.0000 0.19441  0.14140  0.10887  Biso   1.000  H
  H484     1.0000 0.19920  0.16670  0.04030  Biso   1.000  H
  H485     1.0000 0.17911  0.05467  0.06051  Biso   1.000  H
  H486     1.0000 0.04069  0.37606  0.05963  Biso   1.000  H
  H487     1.0000 0.03269  0.51139  0.06721  Biso   1.000  H
  H488     1.0000 0.09316  0.82383  0.07333  Biso   1.000  H
  H489     1.0000 0.08897  0.78064  0.14005  Biso   1.000  H
  C415     1.0000 0.04631  0.85486  0.10438  Biso   1.000  C
  H490     1.0000 0.07192  0.17339  0.91019  Biso   1.000  H
  H491     1.0000 0.03313  0.15105  0.91367  Biso   1.000  H
  C416     1.0000 0.05966  0.06710  0.98000  Biso   1.000  C
  H492     1.0000 0.00873  0.96202  0.88535  Biso   1.000  H
  H493     1.0000 0.02863  0.89953  0.83435  Biso   1.000  H
  H494     1.0000 0.99048  0.87276  0.84166  Biso   1.000  H
  H495     1.0000 0.03150  0.81592  0.13155  Biso   1.000  H
  H496     1.0000 0.03580  0.85955  0.06527  Biso   1.000  H
  H497     1.0000 0.05112  0.93334  0.11887  Biso   1.000  H
  H498     1.0000 0.08257  0.06849  0.99335  Biso   1.000  H
  H499     1.0000 0.05486  0.99287  0.96045  Biso   1.000  H
  H500     1.0000 0.04547  0.07613  0.01387  Biso   1.000  H
