data_image0
_cell_length_a       20.862
_cell_length_b       17.512
_cell_length_c       24.05
_cell_angle_alpha    90
_cell_angle_beta     108.47
_cell_angle_gamma    90

_symmetry_space_group_name_H-M    "P 1"
_symmetry_int_tables_number       1

loop_
  _symmetry_equiv_pos_as_xyz
  'x, y, z'

loop_
  _atom_site_label
  _atom_site_occupancy
  _atom_site_fract_x
  _atom_site_fract_y
  _atom_site_fract_z
  _atom_site_thermal_displace_type
  _atom_site_B_iso_or_equiv
  _atom_site_type_symbol
  O1       1.0000 0.55015  0.56247  0.48340  Biso   1.000  O
  C1       1.0000 0.59583  0.59736  0.53000  Biso   1.000  C
  C2       1.0000 0.48676  0.60027  0.45736  Biso   1.000  C
  C3       1.0000 0.65778  0.55979  0.55289  Biso   1.000  C
  C4       1.0000 0.58569  0.66520  0.55525  Biso   1.000  C
  H1       1.0000 0.49493  0.65201  0.44561  Biso   1.000  H
  H2       1.0000 0.45989  0.57161  0.42291  Biso   1.000  H
  H3       1.0000 0.46209  0.60307  0.48590  Biso   1.000  H
  O2       1.0000 0.66389  0.49280  0.52487  Biso   1.000  O
  C5       1.0000 0.70717  0.59028  0.60058  Biso   1.000  C
  C6       1.0000 0.63645  0.69821  0.60264  Biso   1.000  C
  H4       1.0000 0.54332  0.69033  0.54031  Biso   1.000  H
  C7       1.0000 0.72515  0.45146  0.54587  Biso   1.000  C
  H5       1.0000 0.74872  0.56378  0.61658  Biso   1.000  H
  C8       1.0000 0.69696  0.66012  0.62592  Biso   1.000  C
  C9       1.0000 0.62078  0.77690  0.62259  Biso   1.000  C
  C10      1.0000 0.72210  0.38956  0.50155  Biso   1.000  C
  H6       1.0000 0.76422  0.48550  0.54982  Biso   1.000  H
  H7       1.0000 0.72980  0.42891  0.58471  Biso   1.000  H
  C11      1.0000 0.75463  0.68924  0.67765  Biso   1.000  C
  C12      1.0000 0.63494  0.84000  0.58458  Biso   1.000  C
  H8       1.0000 0.64871  0.78518  0.66389  Biso   1.000  H
  H9       1.0000 0.57270  0.77901  0.62062  Biso   1.000  H
  C13      1.0000 0.67158  0.33451  0.48844  Biso   1.000  C
  C14      1.0000 0.76931  0.38836  0.47187  Biso   1.000  C
  H10      1.0000 0.73612  0.72562  0.70018  Biso   1.000  H
  H11      1.0000 0.77402  0.64561  0.70369  Biso   1.000  H
  C15      1.0000 0.81146  0.72881  0.66130  Biso   1.000  C
  C16      1.0000 0.69796  0.87546  0.59664  Biso   1.000  C
  C17      1.0000 0.58283  0.86169  0.53404  Biso   1.000  C
  C18      1.0000 0.66773  0.27964  0.44575  Biso   1.000  C
  H12      1.0000 0.63932  0.33440  0.50892  Biso   1.000  H
  C19      1.0000 0.76710  0.33371  0.42948  Biso   1.000  C
  H13      1.0000 0.80392  0.42588  0.48069  Biso   1.000  H
  C20      1.0000 0.86584  0.68450  0.65928  Biso   1.000  C
  C21      1.0000 0.81132  0.80676  0.64898  Biso   1.000  C
  C22      1.0000 0.75605  0.86158  0.65279  Biso   1.000  C
  C23      1.0000 0.70723  0.92976  0.55718  Biso   1.000  C
  C24      1.0000 0.59144  0.91691  0.49634  Biso   1.000  C
  H14      1.0000 0.54011  0.83743  0.52562  Biso   1.000  H
  C25      1.0000 0.61058  0.22430  0.43141  Biso   1.000  C
  C26      1.0000 0.71566  0.27964  0.41659  Biso   1.000  C
  C27      1.0000 0.82024  0.33029  0.39937  Biso   1.000  C
  H15      1.0000 0.86561  0.63140  0.66730  Biso   1.000  H
  C28      1.0000 0.92032  0.71482  0.64609  Biso   1.000  C
  C29      1.0000 0.86616  0.83708  0.63429  Biso   1.000  C
  H16      1.0000 0.77739  0.91138  0.66700  Biso   1.000  H
  H17      1.0000 0.73692  0.84182  0.68269  Biso   1.000  H
  H18      1.0000 0.75030  0.95317  0.56499  Biso   1.000  H
  C30      1.0000 0.65562  0.95032  0.50721  Biso   1.000  C
  O3       1.0000 0.54176  0.94387  0.44811  Biso   1.000  O
  O4       1.0000 0.61295  0.17497  0.38985  Biso   1.000  O
  O5       1.0000 0.56652  0.22447  0.45342  Biso   1.000  O
  H19      1.0000 0.71320  0.24218  0.38740  Biso   1.000  H
  O6       1.0000 0.86130  0.39716  0.40901  Biso   1.000  O
  H20      1.0000 0.79790  0.32372  0.35671  Biso   1.000  H
  H21      1.0000 0.84943  0.28518  0.41379  Biso   1.000  H
  O7       1.0000 0.97585  0.67040  0.65152  Biso   1.000  O
  C31      1.0000 0.92026  0.79288  0.63333  Biso   1.000  C
  H22      1.0000 0.86582  0.88968  0.62483  Biso   1.000  H
  O8       1.0000 0.66121  0.00400  0.46727  Biso   1.000  O
  C32      1.0000 0.47263  0.93267  0.44649  Biso   1.000  C
  C33      1.0000 0.55912  0.11912  0.37162  Biso   1.000  C
  C34      1.0000 0.83856  0.45809  0.37144  Biso   1.000  C
  C35      1.0000 0.98902  0.65361  0.60111  Biso   1.000  C
  O9       1.0000 0.97774  0.81904  0.62298  Biso   1.000  O
  C36      1.0000 0.72783  0.02752  0.46959  Biso   1.000  C
  H23      1.0000 0.47151  0.92622  0.48700  Biso   1.000  H
  H24      1.0000 0.44623  0.97899  0.43001  Biso   1.000  H
  C37      1.0000 0.43972  0.86432  0.41046  Biso   1.000  C
  H25      1.0000 0.51560  0.14407  0.36662  Biso   1.000  H
  H26      1.0000 0.55881  0.09611  0.33440  Biso   1.000  H
  H27      1.0000 0.56653  0.07920  0.40160  Biso   1.000  H
  C38      1.0000 0.77879  0.45957  0.32497  Biso   1.000  C
  C39      1.0000 0.88074  0.52136  0.38152  Biso   1.000  C
  H28      1.0000 0.94640  0.64733  0.56919  Biso   1.000  H
  H29      1.0000 0.01512  0.69529  0.59160  Biso   1.000  H
  H30      1.0000 0.01509  0.60610  0.60619  Biso   1.000  H
  C40      1.0000 0.98574  0.89961  0.61930  Biso   1.000  C
  H31      1.0000 0.75539  0.98241  0.46920  Biso   1.000  H
  H32      1.0000 0.72510  0.05962  0.43549  Biso   1.000  H
  H33      1.0000 0.74840  0.05670  0.50559  Biso   1.000  H
  C41      1.0000 0.46875  0.82452  0.37447  Biso   1.000  C
  C42      1.0000 0.37536  0.84411  0.40997  Biso   1.000  C
  H34      1.0000 0.74871  0.41743  0.31940  Biso   1.000  H
  C43      1.0000 0.76129  0.52101  0.28600  Biso   1.000  C
  O10      1.0000 0.93737  0.51679  0.43001  Biso   1.000  O
  C44      1.0000 0.86535  0.58177  0.34268  Biso   1.000  C
  H35      1.0000 0.96913  0.92502  0.64889  Biso   1.000  H
  C45      1.0000 0.94846  0.93170  0.55959  Biso   1.000  C
  H36      1.0000 0.03440  0.91149  0.62890  Biso   1.000  H
  C46      1.0000 0.43473  0.76765  0.33773  Biso   1.000  C
  H37      1.0000 0.51338  0.83708  0.37539  Biso   1.000  H
  C47      1.0000 0.34015  0.78609  0.37394  Biso   1.000  C
  H38      1.0000 0.35502  0.87037  0.43461  Biso   1.000  H
  C48      1.0000 0.69375  0.51810  0.23782  Biso   1.000  C
  C49      1.0000 0.80593  0.58234  0.29363  Biso   1.000  C
  C50      1.0000 0.97272  0.58537  0.44899  Biso   1.000  C
  H39      1.0000 0.89541  0.62397  0.34900  Biso   1.000  H
  C51      1.0000 0.92353  0.88442  0.51089  Biso   1.000  C
  C52      1.0000 0.94323  0.01039  0.55236  Biso   1.000  C
  C53      1.0000 0.46681  0.73098  0.29709  Biso   1.000  C
  C54      1.0000 0.37032  0.74874  0.33738  Biso   1.000  C
  C55      1.0000 0.27031  0.76399  0.37210  Biso   1.000  C
  C56      1.0000 0.63845  0.55802  0.25505  Biso   1.000  C
  H40      1.0000 0.68082  0.46408  0.22840  Biso   1.000  H
  H41      1.0000 0.69829  0.54249  0.20209  Biso   1.000  H
  C57      1.0000 0.79581  0.64938  0.25137  Biso   1.000  C
  H42      1.0000 0.94210  0.62317  0.45688  Biso   1.000  H
  H43      1.0000 0.99021  0.60479  0.41839  Biso   1.000  H
  H44      1.0000 0.01039  0.57589  0.48481  Biso   1.000  H
  C58      1.0000 0.89562  0.91537  0.45535  Biso   1.000  C
  H45      1.0000 0.92561  0.83057  0.51580  Biso   1.000  H
  C59      1.0000 0.91438  0.04191  0.49739  Biso   1.000  C
  H46      1.0000 0.95960  0.04288  0.58550  Biso   1.000  H
  O11      1.0000 0.49238  0.65749  0.31853  Biso   1.000  O
  H47      1.0000 0.50421  0.76359  0.29372  Biso   1.000  H
  H48      1.0000 0.43312  0.72602  0.25759  Biso   1.000  H
  H49      1.0000 0.34622  0.70968  0.31182  Biso   1.000  H
  O12      1.0000 0.24924  0.80545  0.40919  Biso   1.000  O
  O13      1.0000 0.23738  0.71579  0.34115  Biso   1.000  O
  C60      1.0000 0.61450  0.63140  0.23607  Biso   1.000  C
  C61      1.0000 0.61058  0.51987  0.29398  Biso   1.000  C
  H50      1.0000 0.76860  0.63151  0.21191  Biso   1.000  H
  H51      1.0000 0.84061  0.66469  0.24909  Biso   1.000  H
  C62      1.0000 0.76177  0.71996  0.26605  Biso   1.000  C
  C63      1.0000 0.87388  0.86261  0.40357  Biso   1.000  C
  C64      1.0000 0.89031  0.99435  0.44868  Biso   1.000  C
  C65      1.0000 0.91148  0.12557  0.48827  Biso   1.000  C
  C66      1.0000 0.53900  0.62688  0.29499  Biso   1.000  C
  C67      1.0000 0.18252  0.78872  0.41221  Biso   1.000  C
  C68      1.0000 0.56444  0.66354  0.25571  Biso   1.000  C
  C69      1.0000 0.64400  0.68216  0.19898  Biso   1.000  C
  H52      1.0000 0.62582  0.46979  0.30669  Biso   1.000  H
  C70      1.0000 0.56237  0.55276  0.31397  Biso   1.000  C
  C71      1.0000 0.80124  0.76947  0.30902  Biso   1.000  C
  C72      1.0000 0.69382  0.73704  0.23931  Biso   1.000  C
  O14      1.0000 0.80814  0.88419  0.36912  Biso   1.000  O
  H53      1.0000 0.87391  0.80910  0.41690  Biso   1.000  H
  H54      1.0000 0.90529  0.86661  0.38038  Biso   1.000  H
  H55      1.0000 0.87023  0.01582  0.41090  Biso   1.000  H
  O15      1.0000 0.94585  0.16366  0.53658  Biso   1.000  O
  O16      1.0000 0.88241  0.15721  0.44241  Biso   1.000  O
  H56      1.0000 0.17621  0.73321  0.41239  Biso   1.000  H
  H57      1.0000 0.17783  0.81059  0.44820  Biso   1.000  H
  H58      1.0000 0.14838  0.81082  0.37819  Biso   1.000  H
  H59      1.0000 0.54720  0.71248  0.24159  Biso   1.000  H
  H60      1.0000 0.60740  0.71111  0.17031  Biso   1.000  H
  H61      1.0000 0.66721  0.65058  0.17711  Biso   1.000  H
  O17      1.0000 0.53314  0.51902  0.35128  Biso   1.000  O
  C73      1.0000 0.77411  0.83468  0.32541  Biso   1.000  C
  H62      1.0000 0.84769  0.75822  0.32738  Biso   1.000  H
  C74      1.0000 0.66767  0.80528  0.25395  Biso   1.000  C
  C75      1.0000 0.95123  0.24577  0.53123  Biso   1.000  C
  C76      1.0000 0.56562  0.45329  0.38271  Biso   1.000  C
  C77      1.0000 0.70664  0.85399  0.29635  Biso   1.000  C
  H63      1.0000 0.62193  0.81818  0.23410  Biso   1.000  H
  H64      1.0000 0.90591  0.26850  0.51948  Biso   1.000  H
  H65      1.0000 0.97820  0.26707  0.56911  Biso   1.000  H
  H66      1.0000 0.97300  0.25720  0.50160  Biso   1.000  H
  H67      1.0000 0.61371  0.46408  0.40138  Biso   1.000  H
  H68      1.0000 0.54493  0.44033  0.41282  Biso   1.000  H
  H69      1.0000 0.56052  0.41029  0.35548  Biso   1.000  H
  O18      1.0000 0.68462  0.92091  0.31362  Biso   1.000  O
  C78      1.0000 0.61747  0.94330  0.28293  Biso   1.000  C
  H70      1.0000 0.58581  0.90801  0.29218  Biso   1.000  H
  H71      1.0000 0.60968  0.99520  0.29468  Biso   1.000  H
  H72      1.0000 0.61040  0.94233  0.24072  Biso   1.000  H
  O19      1.0000 0.44986  0.43753  0.51659  Biso   1.000  O
  C79      1.0000 0.40418  0.40264  0.46999  Biso   1.000  C
  C80      1.0000 0.51330  0.39973  0.54263  Biso   1.000  C
  C81      1.0000 0.41432  0.33480  0.44474  Biso   1.000  C
  C82      1.0000 0.34223  0.44021  0.44711  Biso   1.000  C
  H73      1.0000 0.50514  0.34799  0.55442  Biso   1.000  H
  H74      1.0000 0.54012  0.42839  0.57709  Biso   1.000  H
  H75      1.0000 0.53791  0.39693  0.51409  Biso   1.000  H
  C83      1.0000 0.36362  0.30179  0.39739  Biso   1.000  C
  H76      1.0000 0.45669  0.30967  0.45969  Biso   1.000  H
  C84      1.0000 0.29285  0.40972  0.39945  Biso   1.000  C
  O20      1.0000 0.33613  0.50720  0.47516  Biso   1.000  O
  C85      1.0000 0.30309  0.33988  0.37407  Biso   1.000  C
  C86      1.0000 0.37923  0.22310  0.37740  Biso   1.000  C
  H77      1.0000 0.25133  0.43622  0.38341  Biso   1.000  H
  C87      1.0000 0.27486  0.54854  0.45412  Biso   1.000  C
  C88      1.0000 0.24537  0.31076  0.32234  Biso   1.000  C
  C89      1.0000 0.36509  0.16000  0.41545  Biso   1.000  C
  H78      1.0000 0.35130  0.21482  0.33611  Biso   1.000  H
  H79      1.0000 0.42733  0.22099  0.37942  Biso   1.000  H
  H80      1.0000 0.23580  0.51450  0.45022  Biso   1.000  H
  H81      1.0000 0.27023  0.57109  0.41532  Biso   1.000  H
  C90      1.0000 0.27791  0.61044  0.49844  Biso   1.000  C
  H82      1.0000 0.26389  0.27438  0.29981  Biso   1.000  H
  H83      1.0000 0.22599  0.35439  0.29630  Biso   1.000  H
  C91      1.0000 0.18860  0.27119  0.33869  Biso   1.000  C
  C92      1.0000 0.30209  0.12454  0.40335  Biso   1.000  C
  C93      1.0000 0.41718  0.13831  0.46596  Biso   1.000  C
  C94      1.0000 0.23072  0.61164  0.52816  Biso   1.000  C
  C95      1.0000 0.32842  0.66549  0.51155  Biso   1.000  C
  C96      1.0000 0.13417  0.31550  0.34071  Biso   1.000  C
  C97      1.0000 0.18869  0.19324  0.35101  Biso   1.000  C
  C98      1.0000 0.24397  0.13842  0.34724  Biso   1.000  C
  C99      1.0000 0.29277  0.07024  0.44281  Biso   1.000  C
  C100     1.0000 0.40858  0.08309  0.50370  Biso   1.000  C
  H84      1.0000 0.45991  0.16257  0.47442  Biso   1.000  H
  H85      1.0000 0.19613  0.57412  0.51931  Biso   1.000  H
  C101     1.0000 0.23295  0.66629  0.57051  Biso   1.000  C
  C102     1.0000 0.33234  0.72036  0.55429  Biso   1.000  C
  H86      1.0000 0.36070  0.66560  0.49112  Biso   1.000  H
  H87      1.0000 0.13440  0.36860  0.33269  Biso   1.000  H
  C103     1.0000 0.07969  0.28518  0.35391  Biso   1.000  C
  C104     1.0000 0.13385  0.16292  0.36570  Biso   1.000  C
  H88      1.0000 0.22261  0.08862  0.33299  Biso   1.000  H
  H89      1.0000 0.26309  0.15818  0.31730  Biso   1.000  H
  H90      1.0000 0.24971  0.04683  0.43501  Biso   1.000  H
  C105     1.0000 0.34439  0.04968  0.49278  Biso   1.000  C
  O21      1.0000 0.45826  0.05613  0.55192  Biso   1.000  O
  C106     1.0000 0.28436  0.72036  0.58344  Biso   1.000  C
  C107     1.0000 0.17978  0.66971  0.60067  Biso   1.000  C
  C108     1.0000 0.38944  0.77570  0.56862  Biso   1.000  C
  O22      1.0000 0.02416  0.32960  0.34847  Biso   1.000  O
  C109     1.0000 0.07975  0.20712  0.36666  Biso   1.000  C
  H91      1.0000 0.13421  0.11032  0.37521  Biso   1.000  H
  O23      1.0000 0.33879  0.99600  0.53272  Biso   1.000  O
  C110     1.0000 0.52740  0.06733  0.55354  Biso   1.000  C
  H92      1.0000 0.28681  0.75782  0.61259  Biso   1.000  H
  O24      1.0000 0.13873  0.60284  0.59103  Biso   1.000  O
  H93      1.0000 0.20212  0.67628  0.64332  Biso   1.000  H
  H94      1.0000 0.15063  0.71482  0.58620  Biso   1.000  H
  O25      1.0000 0.38707  0.82503  0.61018  Biso   1.000  O
  O26      1.0000 0.43349  0.77553  0.54657  Biso   1.000  O
  C111     1.0000 0.01099  0.34639  0.39888  Biso   1.000  C
  O27      1.0000 0.02228  0.18096  0.37705  Biso   1.000  O
  C112     1.0000 0.27223  0.97248  0.53040  Biso   1.000  C
  H95      1.0000 0.52850  0.07378  0.51299  Biso   1.000  H
  H96      1.0000 0.55382  0.02101  0.56998  Biso   1.000  H
  C113     1.0000 0.56034  0.13568  0.58954  Biso   1.000  C
  C114     1.0000 0.16145  0.54191  0.62855  Biso   1.000  C
  C115     1.0000 0.44090  0.88088  0.62842  Biso   1.000  C
  H97      1.0000 0.05361  0.35267  0.43080  Biso   1.000  H
  H98      1.0000 0.98488  0.30471  0.40840  Biso   1.000  H
  H99      1.0000 0.98492  0.39390  0.39380  Biso   1.000  H
  C116     1.0000 0.01426  0.10039  0.38069  Biso   1.000  C
  H100     1.0000 0.24462  0.01759  0.53079  Biso   1.000  H
  H101     1.0000 0.27491  0.94038  0.56450  Biso   1.000  H
  H102     1.0000 0.25161  0.94330  0.49441  Biso   1.000  H
  C117     1.0000 0.53130  0.17548  0.62553  Biso   1.000  C
  C118     1.0000 0.62467  0.15589  0.59006  Biso   1.000  C
  C119     1.0000 0.22124  0.54043  0.67506  Biso   1.000  C
  C120     1.0000 0.11927  0.47864  0.61847  Biso   1.000  C
  H103     1.0000 0.48443  0.85593  0.63342  Biso   1.000  H
  H104     1.0000 0.44120  0.90389  0.66559  Biso   1.000  H
  H105     1.0000 0.43353  0.92080  0.59839  Biso   1.000  H
  H106     1.0000 0.03092  0.07498  0.35110  Biso   1.000  H
  C121     1.0000 0.05162  0.06830  0.44044  Biso   1.000  C
  H107     1.0000 0.96560  0.08851  0.37109  Biso   1.000  H
  H108     1.0000 0.48663  0.16292  0.62461  Biso   1.000  H
  C122     1.0000 0.56528  0.23235  0.66226  Biso   1.000  C
  C123     1.0000 0.65986  0.21391  0.62605  Biso   1.000  C
  H109     1.0000 0.64501  0.12963  0.56542  Biso   1.000  H
  H110     1.0000 0.25130  0.58257  0.68059  Biso   1.000  H
  C124     1.0000 0.23872  0.47899  0.71399  Biso   1.000  C
  O28      1.0000 0.06266  0.48321  0.57003  Biso   1.000  O
  C125     1.0000 0.13467  0.41823  0.65735  Biso   1.000  C
  C126     1.0000 0.07648  0.11558  0.48910  Biso   1.000  C
  C127     1.0000 0.05680  0.98961  0.44768  Biso   1.000  C
  C128     1.0000 0.62971  0.25126  0.66266  Biso   1.000  C
  C129     1.0000 0.53320  0.26902  0.70290  Biso   1.000  C
  C130     1.0000 0.72970  0.23601  0.62789  Biso   1.000  C
  C131     1.0000 0.30626  0.48190  0.76217  Biso   1.000  C
  C132     1.0000 0.19408  0.41766  0.70636  Biso   1.000  C
  C133     1.0000 0.02730  0.41463  0.55105  Biso   1.000  C
  H111     1.0000 0.10460  0.37603  0.65100  Biso   1.000  H
  H112     1.0000 0.07440  0.16943  0.48419  Biso   1.000  H
  C134     1.0000 0.10439  0.08463  0.54465  Biso   1.000  C
  C135     1.0000 0.08563  0.95809  0.50260  Biso   1.000  C
  H113     1.0000 0.04041  0.95712  0.41449  Biso   1.000  H
  H114     1.0000 0.65380  0.29032  0.68822  Biso   1.000  H
  O29      1.0000 0.50763  0.34251  0.68146  Biso   1.000  O
  H115     1.0000 0.49581  0.23641  0.70632  Biso   1.000  H
  H116     1.0000 0.56689  0.27398  0.74240  Biso   1.000  H
  O30      1.0000 0.75078  0.19455  0.59085  Biso   1.000  O
  O31      1.0000 0.76263  0.28421  0.65884  Biso   1.000  O
  C136     1.0000 0.36158  0.44198  0.74499  Biso   1.000  C
  H117     1.0000 0.31919  0.53592  0.77160  Biso   1.000  H
  H118     1.0000 0.30171  0.45751  0.79790  Biso   1.000  H
  C137     1.0000 0.20420  0.35062  0.74862  Biso   1.000  C
  H119     1.0000 0.05791  0.37683  0.54311  Biso   1.000  H
  H120     1.0000 0.00980  0.39521  0.58160  Biso   1.000  H
  H121     1.0000 0.98961  0.42411  0.51519  Biso   1.000  H
  C138     1.0000 0.10972  0.00565  0.55135  Biso   1.000  C
  C139     1.0000 0.12617  0.13739  0.59642  Biso   1.000  C
  C140     1.0000 0.08853  0.87443  0.51172  Biso   1.000  C
  C141     1.0000 0.46103  0.37312  0.70505  Biso   1.000  C
  C142     1.0000 0.81749  0.21128  0.58778  Biso   1.000  C
  C143     1.0000 0.38553  0.36860  0.76397  Biso   1.000  C
  C144     1.0000 0.38943  0.48013  0.70601  Biso   1.000  C
  C145     1.0000 0.23823  0.28004  0.73394  Biso   1.000  C
  H122     1.0000 0.23142  0.36849  0.78812  Biso   1.000  H
  H123     1.0000 0.15940  0.33531  0.75090  Biso   1.000  H
  H124     1.0000 0.12983  0.98418  0.58910  Biso   1.000  H
  O32      1.0000 0.19187  0.11581  0.63087  Biso   1.000  O
  H125     1.0000 0.12610  0.19090  0.58309  Biso   1.000  H
  H126     1.0000 0.09471  0.13339  0.61961  Biso   1.000  H
  O33      1.0000 0.05416  0.83634  0.46341  Biso   1.000  O
  O34      1.0000 0.11761  0.84279  0.55762  Biso   1.000  O
  C146     1.0000 0.43562  0.33646  0.74428  Biso   1.000  C
  C147     1.0000 0.43765  0.44724  0.68607  Biso   1.000  C
  H127     1.0000 0.82380  0.26679  0.58761  Biso   1.000  H
  H128     1.0000 0.82222  0.18941  0.55179  Biso   1.000  H
  H129     1.0000 0.85163  0.18918  0.62180  Biso   1.000  H
  C148     1.0000 0.35606  0.31784  0.80101  Biso   1.000  C
  H130     1.0000 0.37419  0.53021  0.69330  Biso   1.000  H
  C149     1.0000 0.19877  0.23053  0.69098  Biso   1.000  C
  C150     1.0000 0.30621  0.26296  0.76072  Biso   1.000  C
  C151     1.0000 0.22595  0.16532  0.67458  Biso   1.000  C
  C152     1.0000 0.04883  0.75423  0.46876  Biso   1.000  C
  H131     1.0000 0.45281  0.28752  0.75840  Biso   1.000  H
  O35      1.0000 0.46693  0.48098  0.64876  Biso   1.000  O
  H132     1.0000 0.39262  0.28889  0.82972  Biso   1.000  H
  H133     1.0000 0.33279  0.34942  0.82289  Biso   1.000  H
  H134     1.0000 0.15232  0.24178  0.67261  Biso   1.000  H
  C153     1.0000 0.33235  0.19472  0.74608  Biso   1.000  C
  C154     1.0000 0.29342  0.14601  0.70365  Biso   1.000  C
  H135     1.0000 0.09410  0.73150  0.48051  Biso   1.000  H
  H136     1.0000 0.02181  0.73293  0.43089  Biso   1.000  H
  H137     1.0000 0.02701  0.74280  0.49840  Biso   1.000  H
  C155     1.0000 0.43441  0.54671  0.61733  Biso   1.000  C
  H138     1.0000 0.37813  0.18182  0.76590  Biso   1.000  H
  O36      1.0000 0.31544  0.07909  0.68637  Biso   1.000  O
  H139     1.0000 0.38630  0.53592  0.59861  Biso   1.000  H
  H140     1.0000 0.45514  0.55967  0.58721  Biso   1.000  H
  H141     1.0000 0.43954  0.58971  0.64451  Biso   1.000  H
  C156     1.0000 0.38254  0.05670  0.71706  Biso   1.000  C
  H142     1.0000 0.41420  0.09199  0.70781  Biso   1.000  H
  H143     1.0000 0.39032  0.00480  0.70531  Biso   1.000  H
  H144     1.0000 0.38963  0.05767  0.75932  Biso   1.000  H
  C157     1.0000 0.69878  0.26947  0.19096  Biso   1.000  C
  C158     1.0000 0.73825  0.21996  0.23392  Biso   1.000  C
  C159     1.0000 0.72593  0.33468  0.17461  Biso   1.000  C
  H145     1.0000 0.65229  0.25822  0.17259  Biso   1.000  H
  C160     1.0000 0.70422  0.14938  0.24865  Biso   1.000  C
  C161     1.0000 0.80622  0.23704  0.26071  Biso   1.000  C
  O37      1.0000 0.69185  0.38419  0.13090  Biso   1.000  O
  C162     1.0000 0.79338  0.35399  0.20363  Biso   1.000  C
  C163     1.0000 0.69411  0.08234  0.20639  Biso   1.000  C
  H146     1.0000 0.73138  0.13151  0.28810  Biso   1.000  H
  H147     1.0000 0.65941  0.16469  0.25089  Biso   1.000  H
  C164     1.0000 0.83232  0.30528  0.24606  Biso   1.000  C
  C165     1.0000 0.85602  0.18216  0.30099  Biso   1.000  C
  C166     1.0000 0.62615  0.36261  0.09644  Biso   1.000  C
  O38      1.0000 0.81542  0.42091  0.18640  Biso   1.000  O
  C167     1.0000 0.63468  0.08177  0.15734  Biso   1.000  C
  C168     1.0000 0.73873  0.02101  0.21397  Biso   1.000  C
  H148     1.0000 0.87811  0.31818  0.26592  Biso   1.000  H
  C169     1.0000 0.88554  0.13140  0.26395  Biso   1.000  C
  H149     1.0000 0.89259  0.21111  0.32971  Biso   1.000  H
  H150     1.0000 0.83282  0.15058  0.32291  Biso   1.000  H
  C170     1.0000 0.60442  0.41537  0.04467  Biso   1.000  C
  H151     1.0000 0.62613  0.30910  0.08312  Biso   1.000  H
  H152     1.0000 0.59468  0.36661  0.11959  Biso   1.000  H
  C171     1.0000 0.88255  0.44330  0.21704  Biso   1.000  C
  C172     1.0000 0.61925  0.02136  0.11849  Biso   1.000  C
  H153     1.0000 0.60462  0.12397  0.15102  Biso   1.000  H
  C173     1.0000 0.72120  0.95957  0.17505  Biso   1.000  C
  C174     1.0000 0.80629  0.01810  0.26220  Biso   1.000  C
  C175     1.0000 0.86154  0.05802  0.24497  Biso   1.000  C
  C176     1.0000 0.93558  0.16354  0.24427  Biso   1.000  C
  C177     1.0000 0.60973  0.49435  0.05133  Biso   1.000  C
  C178     1.0000 0.57651  0.38442  0.98913  Biso   1.000  C
  H154     1.0000 0.91421  0.40801  0.20779  Biso   1.000  H
  H155     1.0000 0.89029  0.49520  0.20529  Biso   1.000  H
  H156     1.0000 0.88959  0.44233  0.25930  Biso   1.000  H
  O39      1.0000 0.56262  0.01679  0.07001  Biso   1.000  O
  C179     1.0000 0.66141  0.95809  0.12853  Biso   1.000  C
  H157     1.0000 0.75132  0.91743  0.18061  Biso   1.000  H
  H158     1.0000 0.80168  0.04249  0.29788  Biso   1.000  H
  H159     1.0000 0.81922  0.96408  0.27162  Biso   1.000  H
  C180     1.0000 0.88946  0.01987  0.20604  Biso   1.000  C
  C181     1.0000 0.96104  0.12688  0.20503  Biso   1.000  C
  H160     1.0000 0.95282  0.21248  0.25838  Biso   1.000  H
  H161     1.0000 0.62979  0.51582  0.08908  Biso   1.000  H
  C182     1.0000 0.58564  0.54191  0.00259  Biso   1.000  C
  C183     1.0000 0.55158  0.43170  0.94042  Biso   1.000  C
  H162     1.0000 0.57443  0.33057  0.98422  Biso   1.000  H
  C184     1.0000 0.52731  0.08537  0.05103  Biso   1.000  C
  O40      1.0000 0.63874  0.89716  0.09101  Biso   1.000  O
  C185     1.0000 0.93766  0.05276  0.18605  Biso   1.000  C
  H163     1.0000 0.87420  0.96979  0.19328  Biso   1.000  H
  O41      1.0000 0.00766  0.15749  0.18149  Biso   1.000  O
  C186     1.0000 0.58849  0.62557  0.01170  Biso   1.000  C
  C187     1.0000 0.55676  0.51039  0.94766  Biso   1.000  C
  C188     1.0000 0.51428  0.39961  0.88067  Biso   1.000  C
  H164     1.0000 0.55792  0.12317  0.04309  Biso   1.000  H
  H165     1.0000 0.48959  0.07589  0.01521  Biso   1.000  H
  H166     1.0000 0.50981  0.10479  0.08158  Biso   1.000  H
  C189     1.0000 0.67980  0.83029  0.10065  Biso   1.000  C
  O42      1.0000 0.96689  0.01902  0.14874  Biso   1.000  O
  C190     1.0000 0.03323  0.23098  0.20293  Biso   1.000  C
  O43      1.0000 0.61763  0.65721  0.05760  Biso   1.000  O
  O44      1.0000 0.55412  0.66366  0.96340  Biso   1.000  O
  H167     1.0000 0.54039  0.54288  0.91452  Biso   1.000  H
  O45      1.0000 0.52229  0.31904  0.87703  Biso   1.000  O
  H168     1.0000 0.53089  0.42502  0.85108  Biso   1.000  H
  H169     1.0000 0.46558  0.41149  0.87112  Biso   1.000  H
  C191     1.0000 0.73292  0.83371  0.07049  Biso   1.000  C
  H170     1.0000 0.70208  0.82372  0.14331  Biso   1.000  H
  H171     1.0000 0.65059  0.78518  0.08619  Biso   1.000  H
  C192     1.0000 0.93442  0.95329  0.11731  Biso   1.000  C
  H172     1.0000 0.99582  0.26359  0.20630  Biso   1.000  H
  C193     1.0000 0.06531  0.26765  0.16229  Biso   1.000  C
  H173     1.0000 0.06690  0.22602  0.24238  Biso   1.000  H
  C194     1.0000 0.54879  0.74577  0.96874  Biso   1.000  C
  C195     1.0000 0.57973  0.29288  0.86669  Biso   1.000  C
  C196     1.0000 0.73073  0.88836  0.02814  Biso   1.000  C
  C197     1.0000 0.78437  0.77964  0.08342  Biso   1.000  C
  H174     1.0000 0.88631  0.96408  0.09859  Biso   1.000  H
  H175     1.0000 0.95510  0.94033  0.08719  Biso   1.000  H
  H176     1.0000 0.93950  0.91029  0.14449  Biso   1.000  H
  C198     1.0000 0.03128  0.32452  0.12555  Biso   1.000  C
  C199     1.0000 0.12967  0.24874  0.16264  Biso   1.000  C
  H177     1.0000 0.59411  0.76850  0.98049  Biso   1.000  H
  H178     1.0000 0.52179  0.76707  0.93091  Biso   1.000  H
  H179     1.0000 0.52699  0.75720  0.99842  Biso   1.000  H
  C200     1.0000 0.57965  0.21482  0.85389  Biso   1.000  C
  C201     1.0000 0.63386  0.33708  0.86568  Biso   1.000  C
  C202     1.0000 0.77794  0.88956  0.99847  Biso   1.000  C
  H180     1.0000 0.69610  0.92588  0.01929  Biso   1.000  H
  H181     1.0000 0.78679  0.74218  0.11262  Biso   1.000  H
  C203     1.0000 0.83230  0.77964  0.05427  Biso   1.000  C
  H182     1.0000 0.98659  0.33708  0.12459  Biso   1.000  H
  C204     1.0000 0.06030  0.36432  0.08952  Biso   1.000  C
  H183     1.0000 0.15382  0.20968  0.18820  Biso   1.000  H
  C205     1.0000 0.15984  0.28609  0.12608  Biso   1.000  C
  C206     1.0000 0.63413  0.18450  0.84069  Biso   1.000  C
  O46      1.0000 0.52419  0.17040  0.84850  Biso   1.000  O
  C207     1.0000 0.68872  0.30676  0.85104  Biso   1.000  C
  H184     1.0000 0.63422  0.38968  0.87519  Biso   1.000  H
  C208     1.0000 0.77487  0.95146  0.95410  Biso   1.000  C
  C209     1.0000 0.82844  0.83451  0.01153  Biso   1.000  C
  C210     1.0000 0.88945  0.72430  0.06861  Biso   1.000  C
  C211     1.0000 0.02736  0.43267  0.05353  Biso   1.000  C
  C212     1.0000 0.12468  0.34411  0.09004  Biso   1.000  C
  C213     1.0000 0.22973  0.26399  0.12792  Biso   1.000  C
  C214     1.0000 0.68858  0.22881  0.83872  Biso   1.000  C
  H185     1.0000 0.63438  0.13140  0.83271  Biso   1.000  H
  C215     1.0000 0.51101  0.15361  0.89891  Biso   1.000  C
  C216     1.0000 0.74398  0.36158  0.84722  Biso   1.000  C
  O47      1.0000 0.83610  0.99280  0.97514  Biso   1.000  O
  H186     1.0000 0.73581  0.98550  0.95020  Biso   1.000  H
  H187     1.0000 0.77019  0.92891  0.91530  Biso   1.000  H
  H188     1.0000 0.86071  0.83440  0.99110  Biso   1.000  H
  O48      1.0000 0.88709  0.67497  0.11017  Biso   1.000  O
  O49      1.0000 0.93352  0.72447  0.04660  Biso   1.000  O
  O50      1.0000 0.95827  0.44387  0.05190  Biso   1.000  O
  H189     1.0000 0.02853  0.42622  0.01302  Biso   1.000  H
  H190     1.0000 0.05380  0.47899  0.07001  Biso   1.000  H
  H191     1.0000 0.14502  0.37037  0.06541  Biso   1.000  H
  O51      1.0000 0.25079  0.30545  0.09083  Biso   1.000  O
  O52      1.0000 0.26265  0.21579  0.15887  Biso   1.000  O
  C217     1.0000 0.74534  0.18924  0.82232  Biso   1.000  C
  H192     1.0000 0.48490  0.19529  0.90838  Biso   1.000  H
  H193     1.0000 0.48489  0.10610  0.89378  Biso   1.000  H
  H194     1.0000 0.55357  0.14733  0.93078  Biso   1.000  H
  C218     1.0000 0.80207  0.37546  0.90338  Biso   1.000  C
  H195     1.0000 0.72259  0.41138  0.83302  Biso   1.000  H
  H196     1.0000 0.76310  0.34182  0.81728  Biso   1.000  H
  C219     1.0000 0.84226  0.05979  0.94713  Biso   1.000  C
  C220     1.0000 0.94086  0.61912  0.12840  Biso   1.000  C
  C221     1.0000 0.90859  0.41691  0.00368  Biso   1.000  C
  C222     1.0000 0.31747  0.28872  0.08781  Biso   1.000  C
  C223     1.0000 0.80307  0.16012  0.87410  Biso   1.000  C
  H197     1.0000 0.76390  0.22562  0.79979  Biso   1.000  H
  H198     1.0000 0.72600  0.14561  0.79628  Biso   1.000  H
  C224     1.0000 0.86505  0.34000  0.91544  Biso   1.000  C
  C225     1.0000 0.79274  0.42976  0.94279  Biso   1.000  C
  C226     1.0000 0.90419  0.09736  0.96997  Biso   1.000  C
  C227     1.0000 0.79287  0.09028  0.89944  Biso   1.000  C
  H199     1.0000 0.98439  0.64407  0.13340  Biso   1.000  H
  H200     1.0000 0.94123  0.59611  0.16562  Biso   1.000  H
  H201     1.0000 0.93351  0.57920  0.09842  Biso   1.000  H
  C228     1.0000 0.91719  0.36169  0.96594  Biso   1.000  C
  C229     1.0000 0.84437  0.45032  0.99281  Biso   1.000  C
  H202     1.0000 0.32381  0.23321  0.08759  Biso   1.000  H
  H203     1.0000 0.32220  0.31059  0.05182  Biso   1.000  H
  H204     1.0000 0.35159  0.31082  0.12178  Biso   1.000  H
  C230     1.0000 0.86358  0.19821  0.89737  Biso   1.000  C
  C231     1.0000 0.87919  0.27690  0.87738  Biso   1.000  C
  H205     1.0000 0.74967  0.45317  0.93499  Biso   1.000  H
  O53      1.0000 0.94989  0.06247  0.01661  Biso   1.000  O
  C232     1.0000 0.91433  0.16520  0.94472  Biso   1.000  C
  H206     1.0000 0.75130  0.06378  0.88339  Biso   1.000  H
  H207     1.0000 0.95988  0.33743  0.97440  Biso   1.000  H
  O54      1.0000 0.83877  0.50400  0.03275  Biso   1.000  O
  H208     1.0000 0.85131  0.28518  0.83609  Biso   1.000  H
  H209     1.0000 0.92729  0.27901  0.87940  Biso   1.000  H
  C233     1.0000 0.01326  0.10027  0.04261  Biso   1.000  C
  H210     1.0000 0.95672  0.19033  0.95971  Biso   1.000  H
  C234     1.0000 0.77219  0.52752  0.03038  Biso   1.000  C
  H211     1.0000 0.00511  0.15201  0.05440  Biso   1.000  H
  H212     1.0000 0.04010  0.07161  0.07711  Biso   1.000  H
  H213     1.0000 0.03789  0.10307  0.01412  Biso   1.000  H
  H214     1.0000 0.74460  0.48241  0.03082  Biso   1.000  H
  H215     1.0000 0.77492  0.55962  0.06449  Biso   1.000  H
  H216     1.0000 0.75162  0.55670  0.99439  Biso   1.000  H
  C235     1.0000 0.30123  0.73053  0.80903  Biso   1.000  C
  C236     1.0000 0.26176  0.78004  0.76607  Biso   1.000  C
  C237     1.0000 0.27409  0.66532  0.82543  Biso   1.000  C
  H217     1.0000 0.34772  0.74178  0.82740  Biso   1.000  H
  C238     1.0000 0.19379  0.76296  0.73929  Biso   1.000  C
  C239     1.0000 0.29580  0.85062  0.75139  Biso   1.000  C
  C240     1.0000 0.20663  0.64601  0.79636  Biso   1.000  C
  O55      1.0000 0.30817  0.61581  0.86914  Biso   1.000  O
  C241     1.0000 0.16769  0.69472  0.75393  Biso   1.000  C
  C242     1.0000 0.14399  0.81784  0.69900  Biso   1.000  C
  C243     1.0000 0.30596  0.91766  0.79365  Biso   1.000  C
  H218     1.0000 0.26862  0.86849  0.71189  Biso   1.000  H
  H219     1.0000 0.34060  0.83531  0.74911  Biso   1.000  H
  O56      1.0000 0.18461  0.57909  0.81364  Biso   1.000  O
  C244     1.0000 0.37387  0.63739  0.90359  Biso   1.000  C
  H220     1.0000 0.12191  0.68182  0.73411  Biso   1.000  H
  C245     1.0000 0.11447  0.86860  0.73604  Biso   1.000  C
  H221     1.0000 0.10742  0.78889  0.67029  Biso   1.000  H
  H222     1.0000 0.16720  0.84942  0.67712  Biso   1.000  H
  C246     1.0000 0.26128  0.97899  0.78602  Biso   1.000  C
  C247     1.0000 0.36537  0.91823  0.84266  Biso   1.000  C
  C248     1.0000 0.11746  0.55670  0.78295  Biso   1.000  C
  C249     1.0000 0.39565  0.58463  0.95537  Biso   1.000  C
  H223     1.0000 0.37394  0.69090  0.91692  Biso   1.000  H
  H224     1.0000 0.40533  0.63339  0.88040  Biso   1.000  H
  C250     1.0000 0.06443  0.83646  0.75573  Biso   1.000  C
  C251     1.0000 0.13847  0.94198  0.75502  Biso   1.000  C
  C252     1.0000 0.19374  0.98190  0.73784  Biso   1.000  C
  C253     1.0000 0.27881  0.04043  0.82495  Biso   1.000  C
  H225     1.0000 0.39540  0.87603  0.84901  Biso   1.000  H
  C254     1.0000 0.38077  0.97864  0.88154  Biso   1.000  C
  H226     1.0000 0.08580  0.59199  0.79220  Biso   1.000  H
  H227     1.0000 0.10972  0.50480  0.79470  Biso   1.000  H
  H228     1.0000 0.11042  0.55767  0.74069  Biso   1.000  H
  C255     1.0000 0.39028  0.50565  0.94866  Biso   1.000  C
  C256     1.0000 0.42351  0.61558  0.01091  Biso   1.000  C
  C257     1.0000 0.03902  0.87312  0.79496  Biso   1.000  C
  H229     1.0000 0.04724  0.78752  0.74161  Biso   1.000  H
  C258     1.0000 0.11060  0.98013  0.79395  Biso   1.000  C
  H230     1.0000 0.19833  0.95751  0.70211  Biso   1.000  H
  H231     1.0000 0.18081  0.03592  0.72841  Biso   1.000  H
  C259     1.0000 0.33860  0.04191  0.87146  Biso   1.000  C
  H232     1.0000 0.24875  0.08257  0.81942  Biso   1.000  H
  O57      1.0000 0.43739  0.98321  0.92998  Biso   1.000  O
  H233     1.0000 0.37022  0.48418  0.91091  Biso   1.000  H
  C260     1.0000 0.41441  0.45809  0.99741  Biso   1.000  C
  C261     1.0000 0.44843  0.56830  0.05957  Biso   1.000  C
  H234     1.0000 0.42564  0.66943  0.01582  Biso   1.000  H
  C262     1.0000 0.06239  0.94724  0.81394  Biso   1.000  C
  O58      1.0000 0.99241  0.84251  0.81855  Biso   1.000  O
  H235     1.0000 0.12580  0.03021  0.80671  Biso   1.000  H
  O59      1.0000 0.36132  0.10284  0.90898  Biso   1.000  O
  C263     1.0000 0.47274  0.91463  0.94896  Biso   1.000  C
  C264     1.0000 0.41151  0.37443  0.98829  Biso   1.000  C
  C265     1.0000 0.44325  0.48961  0.05234  Biso   1.000  C
  C266     1.0000 0.48573  0.60039  0.11932  Biso   1.000  C
  O60      1.0000 0.03312  0.98098  0.85125  Biso   1.000  O
  C267     1.0000 0.96680  0.76902  0.79711  Biso   1.000  C
  C268     1.0000 0.32021  0.16971  0.89934  Biso   1.000  C
  H236     1.0000 0.44214  0.87683  0.95690  Biso   1.000  H
  H237     1.0000 0.51043  0.92411  0.98482  Biso   1.000  H
  H238     1.0000 0.49020  0.89521  0.91841  Biso   1.000  H
  O61      1.0000 0.38243  0.34279  0.94239  Biso   1.000  O
  O62      1.0000 0.44589  0.33634  0.03660  Biso   1.000  O
  H239     1.0000 0.45963  0.45712  0.08552  Biso   1.000  H
  O63      1.0000 0.47771  0.68096  0.12296  Biso   1.000  O
  H240     1.0000 0.46912  0.57498  0.14891  Biso   1.000  H
  H241     1.0000 0.53444  0.58851  0.12892  Biso   1.000  H
  C269     1.0000 0.06559  0.04671  0.88268  Biso   1.000  C
  H242     1.0000 0.00423  0.73641  0.79369  Biso   1.000  H
  C270     1.0000 0.93470  0.73235  0.83770  Biso   1.000  C
  H243     1.0000 0.93310  0.77398  0.75761  Biso   1.000  H
  C271     1.0000 0.26709  0.16629  0.92950  Biso   1.000  C
  H244     1.0000 0.29792  0.17628  0.85669  Biso   1.000  H
  H245     1.0000 0.34942  0.21482  0.91381  Biso   1.000  H
  C272     1.0000 0.45122  0.25423  0.03125  Biso   1.000  C
  C273     1.0000 0.42030  0.70712  0.13335  Biso   1.000  C
  H246     1.0000 0.11370  0.03592  0.90140  Biso   1.000  H
  H247     1.0000 0.04491  0.05967  0.91280  Biso   1.000  H
  H248     1.0000 0.06051  0.08971  0.85550  Biso   1.000  H
  C274     1.0000 0.96874  0.67548  0.87448  Biso   1.000  C
  C275     1.0000 0.87034  0.75126  0.83735  Biso   1.000  C
  C276     1.0000 0.26933  0.11164  0.97185  Biso   1.000  C
  C277     1.0000 0.21568  0.22036  0.91657  Biso   1.000  C
  H249     1.0000 0.40590  0.23150  0.01950  Biso   1.000  H
  H250     1.0000 0.47823  0.23293  0.06913  Biso   1.000  H
  H251     1.0000 0.47304  0.24280  0.00161  Biso   1.000  H
  C278     1.0000 0.42035  0.78518  0.14610  Biso   1.000  C
  C279     1.0000 0.36615  0.66292  0.13431  Biso   1.000  C
  H252     1.0000 0.01342  0.66292  0.87540  Biso   1.000  H
  C280     1.0000 0.93970  0.63568  0.91047  Biso   1.000  C
  H253     1.0000 0.84619  0.79032  0.81180  Biso   1.000  H
  C281     1.0000 0.84017  0.71391  0.87391  Biso   1.000  C
  H254     1.0000 0.30391  0.07412  0.98070  Biso   1.000  H
  C282     1.0000 0.22214  0.11044  0.00157  Biso   1.000  C
  H255     1.0000 0.21323  0.25782  0.88742  Biso   1.000  H
  C283     1.0000 0.16771  0.22036  0.94572  Biso   1.000  C
  O64      1.0000 0.47583  0.82960  0.15154  Biso   1.000  O
  C284     1.0000 0.36588  0.81550  0.15930  Biso   1.000  C
  H256     1.0000 0.36584  0.61032  0.12480  Biso   1.000  H
  C285     1.0000 0.31135  0.69324  0.14900  Biso   1.000  C
  C286     1.0000 0.97265  0.56733  0.94647  Biso   1.000  C
  C287     1.0000 0.87538  0.65589  0.90995  Biso   1.000  C
  C288     1.0000 0.77034  0.73601  0.87212  Biso   1.000  C
  C289     1.0000 0.17157  0.16549  0.98846  Biso   1.000  C
  C290     1.0000 0.22514  0.04854  0.04589  Biso   1.000  C
  C291     1.0000 0.11061  0.27570  0.93139  Biso   1.000  C
  C292     1.0000 0.48901  0.84639  0.10113  Biso   1.000  C
  C293     1.0000 0.31144  0.77119  0.16132  Biso   1.000  C
  H257     1.0000 0.36565  0.86860  0.16732  Biso   1.000  H
  C294     1.0000 0.25607  0.63842  0.15277  Biso   1.000  C
  O65      1.0000 0.04174  0.55613  0.94809  Biso   1.000  O
  H258     1.0000 0.97154  0.57378  0.98702  Biso   1.000  H
  H259     1.0000 0.94622  0.52101  0.93003  Biso   1.000  H
  H260     1.0000 0.85499  0.62963  0.93459  Biso   1.000  H
  O66      1.0000 0.74926  0.69455  0.90916  Biso   1.000  O
  O67      1.0000 0.73742  0.78421  0.84117  Biso   1.000  O
  H261     1.0000 0.13930  0.16560  0.00889  Biso   1.000  H
  O68      1.0000 0.16391  0.00720  0.02485  Biso   1.000  O
  H262     1.0000 0.26419  0.01450  0.04979  Biso   1.000  H
  H263     1.0000 0.22982  0.07109  0.08469  Biso   1.000  H
  O69      1.0000 0.11297  0.32503  0.88983  Biso   1.000  O
  O70      1.0000 0.06655  0.27553  0.95344  Biso   1.000  O
  H264     1.0000 0.51511  0.80471  0.09161  Biso   1.000  H
  H265     1.0000 0.51512  0.89390  0.10621  Biso   1.000  H
  H266     1.0000 0.44644  0.85267  0.06921  Biso   1.000  H
  C295     1.0000 0.25467  0.81076  0.17767  Biso   1.000  C
  H267     1.0000 0.27743  0.58862  0.16702  Biso   1.000  H
  H268     1.0000 0.23691  0.65818  0.18271  Biso   1.000  H
  C296     1.0000 0.19795  0.62454  0.09666  Biso   1.000  C
  C297     1.0000 0.09146  0.58309  0.99631  Biso   1.000  C
  C298     1.0000 0.68254  0.71128  0.91218  Biso   1.000  C
  C299     1.0000 0.15777  0.94021  0.05290  Biso   1.000  C
  C300     1.0000 0.05914  0.38088  0.87159  Biso   1.000  C
  C301     1.0000 0.19694  0.83988  0.12590  Biso   1.000  C
  H269     1.0000 0.23610  0.77438  0.20020  Biso   1.000  H
  H270     1.0000 0.27401  0.85439  0.20371  Biso   1.000  H
  C302     1.0000 0.20727  0.57024  0.05720  Biso   1.000  C
  C303     1.0000 0.13496  0.66000  0.08456  Biso   1.000  C
  C304     1.0000 0.15566  0.54968  0.00723  Biso   1.000  C
  C305     1.0000 0.08286  0.63831  0.03405  Biso   1.000  C
  H271     1.0000 0.67620  0.76679  0.91240  Biso   1.000  H
  H272     1.0000 0.67782  0.68941  0.94822  Biso   1.000  H
  H273     1.0000 0.64842  0.68918  0.87821  Biso   1.000  H
  C306     1.0000 0.09587  0.90264  0.03002  Biso   1.000  C
  C307     1.0000 0.20719  0.90972  0.10056  Biso   1.000  C
  H274     1.0000 0.01562  0.35593  0.86659  Biso   1.000  H
  H275     1.0000 0.05884  0.40389  0.83442  Biso   1.000  H
  H276     1.0000 0.06652  0.42080  0.90162  Biso   1.000  H
  C308     1.0000 0.13643  0.80179  0.10262  Biso   1.000  C
  H277     1.0000 0.25034  0.54683  0.06500  Biso   1.000  H
  C309     1.0000 0.12081  0.72310  0.12261  Biso   1.000  C
  O71      1.0000 0.16123  0.49600  0.96725  Biso   1.000  O
  H278     1.0000 0.04013  0.66257  0.02559  Biso   1.000  H
  O72      1.0000 0.05018  0.93753  0.98342  Biso   1.000  O
  C310     1.0000 0.08572  0.83480  0.05527  Biso   1.000  C
  H279     1.0000 0.24871  0.93622  0.11660  Biso   1.000  H
  H280     1.0000 0.14874  0.71482  0.16390  Biso   1.000  H
  H281     1.0000 0.07272  0.72099  0.12059  Biso   1.000  H
  C311     1.0000 0.22782  0.47248  0.96961  Biso   1.000  C
  C312     1.0000 0.98675  0.89973  0.95738  Biso   1.000  C
  H282     1.0000 0.04331  0.80967  0.04032  Biso   1.000  H
  H283     1.0000 0.25543  0.51759  0.96922  Biso   1.000  H
  H284     1.0000 0.22514  0.44038  0.93551  Biso   1.000  H
  H285     1.0000 0.24844  0.44330  0.00560  Biso   1.000  H
  H286     1.0000 0.99490  0.84799  0.94559  Biso   1.000  H
  H287     1.0000 0.95993  0.92839  0.92292  Biso   1.000  H
  H288     1.0000 0.96213  0.89693  0.98592  Biso   1.000  H
  Ne1      1.0000 0.30612  0.29896  0.55683  Biso   1.000  Ne
  He1      1.0000 0.38753  0.08513  0.61214  Biso   1.000  He
  He2      1.0000 0.05903  0.27886  0.50050  Biso   1.000  He
  He3      1.0000 0.49308  0.24429  0.52852  Biso   1.000  He
  He4      1.0000 0.13021  0.46427  0.46403  Biso   1.000  He
  Ar1      1.0000 0.29468  0.29272  0.56132  Biso   1.000  Ar
  Ne2      1.0000 0.69390  0.70104  0.44318  Biso   1.000  Ne
  He5      1.0000 0.85760  0.55597  0.50837  Biso   1.000  He
  He6      1.0000 0.89498  0.71364  0.49175  Biso   1.000  He
  He7      1.0000 0.49341  0.75320  0.47577  Biso   1.000  He
  He8      1.0000 0.56493  0.91892  0.36220  Biso   1.000  He
  Ar2      1.0000 0.70533  0.70728  0.43865  Biso   1.000  Ar
  Ne3      1.0000 0.80612  0.20104  0.05682  Biso   1.000  Ne
  He9      1.0000 0.94522  0.42514  0.14313  Biso   1.000  He
  He10     1.0000 0.56160  0.23621  0.02778  Biso   1.000  He
  He11     1.0000 0.62438  0.02903  0.95778  Biso   1.000  He
  He12     1.0000 0.98142  0.25483  0.02983  Biso   1.000  He
  Ar3      1.0000 0.79478  0.20731  0.06139  Biso   1.000  Ar
  Ne4      1.0000 0.19391  0.79896  0.94318  Biso   1.000  Ne
  He13     1.0000 0.37014  0.96463  0.03636  Biso   1.000  He
  He14     1.0000 0.43988  0.76328  0.97199  Biso   1.000  He
  He15     1.0000 0.04068  0.75007  0.96372  Biso   1.000  He
  He16     1.0000 0.05496  0.57498  0.85696  Biso   1.000  He
  Ar4      1.0000 0.20541  0.79277  0.93870  Biso   1.000  Ar
