data_image0
_cell_length_a       14.277
_cell_length_b       15.731
_cell_length_c       31.149
_cell_angle_alpha    90
_cell_angle_beta     90
_cell_angle_gamma    90

_symmetry_space_group_name_H-M    "P 1"
_symmetry_int_tables_number       1

loop_
  _symmetry_equiv_pos_as_xyz
  'x, y, z'

loop_
  _atom_site_label
  _atom_site_occupancy
  _atom_site_fract_x
  _atom_site_fract_y
  _atom_site_fract_z
  _atom_site_thermal_displace_type
  _atom_site_B_iso_or_equiv
  _atom_site_type_symbol
  O1       1.0000 0.51839  0.57650  0.55546  Biso   1.000  O
  C1       1.0000 0.45913  0.64764  0.56198  Biso   1.000  C
  H1       1.0000 0.56931  0.58528  0.56679  Biso   1.000  H
  C2       1.0000 0.36681  0.63022  0.54108  Biso   1.000  C
  H2       1.0000 0.44904  0.65463  0.59289  Biso   1.000  H
  C3       1.0000 0.50312  0.72742  0.54477  Biso   1.000  C
  O2       1.0000 0.32031  0.56068  0.56233  Biso   1.000  O
  C4       1.0000 0.30490  0.70943  0.54265  Biso   1.000  C
  H3       1.0000 0.37760  0.61471  0.51100  Biso   1.000  H
  C5       1.0000 0.43469  0.80230  0.54464  Biso   1.000  C
  H4       1.0000 0.52623  0.71731  0.51562  Biso   1.000  H
  O3       1.0000 0.58079  0.74642  0.57276  Biso   1.000  O
  C6       1.0000 0.28318  0.50048  0.53360  Biso   1.000  C
  H5       1.0000 0.24564  0.69779  0.52791  Biso   1.000  H
  O4       1.0000 0.34874  0.77764  0.52342  Biso   1.000  O
  O5       1.0000 0.28718  0.72634  0.58705  Biso   1.000  O
  H6       1.0000 0.42005  0.81679  0.57450  Biso   1.000  H
  C7       1.0000 0.46901  0.88100  0.52239  Biso   1.000  C
  C8       1.0000 0.67101  0.75431  0.55556  Biso   1.000  C
  H7       1.0000 0.25362  0.45560  0.54952  Biso   1.000  H
  H8       1.0000 0.33284  0.47734  0.51642  Biso   1.000  H
  H9       1.0000 0.23794  0.52743  0.51530  Biso   1.000  H
  C9       1.0000 0.19220  0.73524  0.60169  Biso   1.000  C
  H10      1.0000 0.42005  0.92372  0.52281  Biso   1.000  H
  H11      1.0000 0.52245  0.90363  0.53790  Biso   1.000  H
  O6       1.0000 0.49429  0.86511  0.48120  Biso   1.000  O
  H12      1.0000 0.67122  0.73199  0.52621  Biso   1.000  H
  C10      1.0000 0.73734  0.70269  0.58259  Biso   1.000  C
  O7       1.0000 0.69763  0.84063  0.55482  Biso   1.000  O
  C11      1.0000 0.18820  0.68311  0.64243  Biso   1.000  C
  H13      1.0000 0.14870  0.71222  0.58031  Biso   1.000  H
  C12      1.0000 0.17090  0.82798  0.61010  Biso   1.000  C
  C13      1.0000 0.52630  0.93821  0.45950  Biso   1.000  C
  H14      1.0000 0.80010  0.70549  0.56991  Biso   1.000  H
  C14      1.0000 0.74105  0.73740  0.62763  Biso   1.000  C
  O8       1.0000 0.70701  0.61624  0.58323  Biso   1.000  O
  C15      1.0000 0.69440  0.88049  0.59681  Biso   1.000  C
  C16      1.0000 0.09778  0.69868  0.66625  Biso   1.000  C
  H15      1.0000 0.24081  0.69932  0.66092  Biso   1.000  H
  O9       1.0000 0.19591  0.59437  0.63238  Biso   1.000  O
  H16      1.0000 0.22148  0.85392  0.62679  Biso   1.000  H
  C17      1.0000 0.15669  0.87814  0.56621  Biso   1.000  C
  O10      1.0000 0.08377  0.83478  0.63293  Biso   1.000  O
  H17      1.0000 0.54493  0.92308  0.43090  Biso   1.000  H
  H18      1.0000 0.57890  0.96173  0.47462  Biso   1.000  H
  H19      1.0000 0.47692  0.97953  0.45831  Biso   1.000  H
  H20      1.0000 0.68004  0.72710  0.64111  Biso   1.000  H
  C18      1.0000 0.75940  0.83243  0.62837  Biso   1.000  C
  O11      1.0000 0.81039  0.69354  0.65209  Biso   1.000  O
  C19      1.0000 0.77250  0.55572  0.56991  Biso   1.000  C
  H21      1.0000 0.63045  0.87369  0.60750  Biso   1.000  H
  C20      1.0000 0.70981  0.97241  0.59090  Biso   1.000  C
  C21      1.0000 0.08363  0.79378  0.67241  Biso   1.000  C
  H22      1.0000 0.04560  0.67580  0.64939  Biso   1.000  H
  O12      1.0000 0.09757  0.66029  0.70763  Biso   1.000  O
  H23      1.0000 0.24494  0.58572  0.61941  Biso   1.000  H
  H24      1.0000 0.20803  0.86581  0.54679  Biso   1.000  H
  H25      1.0000 0.09883  0.86021  0.55260  Biso   1.000  H
  O13      1.0000 0.15360  0.96224  0.57459  Biso   1.000  O
  H26      1.0000 0.82510  0.84381  0.62130  Biso   1.000  H
  O14      1.0000 0.73993  0.85951  0.67100  Biso   1.000  O
  H27      1.0000 0.81173  0.71280  0.67652  Biso   1.000  H
  H28      1.0000 0.74525  0.50010  0.57161  Biso   1.000  H
  H29      1.0000 0.82664  0.55839  0.58821  Biso   1.000  H
  H30      1.0000 0.79085  0.56729  0.54082  Biso   1.000  H
  H31      1.0000 0.66863  0.99383  0.56872  Biso   1.000  H
  O15      1.0000 0.80255  0.98671  0.57944  Biso   1.000  O
  H32      1.0000 0.69573  0.00222  0.61742  Biso   1.000  H
  O16      1.0000 0.15402  0.82334  0.69977  Biso   1.000  O
  H33      1.0000 0.02269  0.80313  0.68622  Biso   1.000  H
  C22      1.0000 0.04973  0.58159  0.71071  Biso   1.000  C
  C23      1.0000 0.13301  0.01252  0.54149  Biso   1.000  C
  C24      1.0000 0.80682  0.90592  0.69418  Biso   1.000  C
  C25      1.0000 0.82370  0.07272  0.57620  Biso   1.000  C
  C26      1.0000 0.13168  0.88233  0.73306  Biso   1.000  C
  H34      1.0000 0.05372  0.56068  0.73961  Biso   1.000  H
  H35      1.0000 0.07768  0.54122  0.69151  Biso   1.000  H
  H36      1.0000 0.98515  0.58954  0.70310  Biso   1.000  H
  H37      1.0000 0.07130  0.99860  0.53100  Biso   1.000  H
  H38      1.0000 0.13371  0.07069  0.55061  Biso   1.000  H
  H39      1.0000 0.17784  0.00432  0.51902  Biso   1.000  H
  H40      1.0000 0.86713  0.90242  0.67922  Biso   1.000  H
  C27      1.0000 0.81705  0.86809  0.73800  Biso   1.000  C
  O17      1.0000 0.77986  0.99282  0.69752  Biso   1.000  O
  H41      1.0000 0.88772  0.07933  0.56740  Biso   1.000  H
  H42      1.0000 0.81474  0.09949  0.60361  Biso   1.000  H
  H43      1.0000 0.78322  0.09872  0.55540  Biso   1.000  H
  C28      1.0000 0.16411  0.84292  0.77479  Biso   1.000  C
  H44      1.0000 0.06360  0.89028  0.73412  Biso   1.000  H
  C29      1.0000 0.17861  0.96733  0.72352  Biso   1.000  C
  H45      1.0000 0.86853  0.89670  0.75299  Biso   1.000  H
  C30      1.0000 0.72774  0.87871  0.76410  Biso   1.000  C
  O18      1.0000 0.84142  0.78069  0.73142  Biso   1.000  O
  C31      1.0000 0.68859  0.00534  0.71758  Biso   1.000  C
  C32      1.0000 0.15641  0.90700  0.81081  Biso   1.000  C
  H46      1.0000 0.22988  0.82652  0.77171  Biso   1.000  H
  O19      1.0000 0.11151  0.76988  0.78462  Biso   1.000  O
  H47      1.0000 0.24494  0.95684  0.71742  Biso   1.000  H
  C33      1.0000 0.13721  0.01481  0.68657  Biso   1.000  C
  O20      1.0000 0.17252  0.02212  0.76073  Biso   1.000  O
  H48      1.0000 0.67920  0.84184  0.75190  Biso   1.000  H
  C34      1.0000 0.69321  0.97031  0.76246  Biso   1.000  C
  O21      1.0000 0.74385  0.85411  0.80735  Biso   1.000  O
  C35      1.0000 0.88135  0.73733  0.76741  Biso   1.000  C
  H49      1.0000 0.64089  0.97432  0.70121  Biso   1.000  H
  C36      1.0000 0.66912  0.09821  0.71518  Biso   1.000  C
  C37      1.0000 0.21041  0.98760  0.79874  Biso   1.000  C
  H50      1.0000 0.09043  0.92130  0.81540  Biso   1.000  H
  O22      1.0000 0.19528  0.87623  0.84975  Biso   1.000  O
  H51      1.0000 0.07249  0.76168  0.76571  Biso   1.000  H
  H52      1.0000 0.14758  0.98341  0.66021  Biso   1.000  H
  H53      1.0000 0.16733  0.06980  0.68391  Biso   1.000  H
  O23      1.0000 0.04013  0.02594  0.69322  Biso   1.000  O
  O24      1.0000 0.59971  0.96796  0.78060  Biso   1.000  O
  H54      1.0000 0.73370  0.00629  0.78022  Biso   1.000  H
  H55      1.0000 0.69545  0.85983  0.82121  Biso   1.000  H
  H56      1.0000 0.89494  0.67949  0.75961  Biso   1.000  H
  H57      1.0000 0.83764  0.73791  0.79091  Biso   1.000  H
  H58      1.0000 0.93801  0.76530  0.77601  Biso   1.000  H
  H59      1.0000 0.61694  0.11252  0.73380  Biso   1.000  H
  H60      1.0000 0.72354  0.13000  0.72461  Biso   1.000  H
  O25      1.0000 0.64712  0.11945  0.67216  Biso   1.000  O
  O26      1.0000 0.30490  0.96434  0.79200  Biso   1.000  O
  H61      1.0000 0.20621  0.02924  0.82211  Biso   1.000  H
  C38      1.0000 0.13252  0.83612  0.87810  Biso   1.000  C
  C39      1.0000 0.99545  0.07132  0.65989  Biso   1.000  C
  C40      1.0000 0.57855  0.02041  0.81633  Biso   1.000  C
  C41      1.0000 0.64222  0.20749  0.66522  Biso   1.000  C
  C42      1.0000 0.37774  0.00750  0.81460  Biso   1.000  C
  H62      1.0000 0.16572  0.81711  0.90311  Biso   1.000  H
  H63      1.0000 0.10408  0.78832  0.86410  Biso   1.000  H
  H64      1.0000 0.08468  0.87572  0.88651  Biso   1.000  H
  H65      1.0000 0.93017  0.07762  0.66651  Biso   1.000  H
  H66      1.0000 0.00217  0.04081  0.63341  Biso   1.000  H
  H67      1.0000 0.02360  0.12650  0.65710  Biso   1.000  H
  C43      1.0000 0.53071  0.96650  0.85017  Biso   1.000  C
  O27      1.0000 0.51979  0.08849  0.80397  Biso   1.000  O
  H68      1.0000 0.63683  0.04342  0.82812  Biso   1.000  H
  H69      1.0000 0.62765  0.21823  0.63562  Biso   1.000  H
  H70      1.0000 0.70141  0.23292  0.67212  Biso   1.000  H
  H71      1.0000 0.59431  0.23152  0.68310  Biso   1.000  H
  C44      1.0000 0.43609  0.93592  0.83486  Biso   1.000  C
  H72      1.0000 0.35070  0.04342  0.83711  Biso   1.000  H
  C45      1.0000 0.43419  0.06134  0.78359  Biso   1.000  C
  O28      1.0000 0.59263  0.89778  0.85919  Biso   1.000  O
  H73      1.0000 0.52231  0.00051  0.87621  Biso   1.000  H
  H74      1.0000 0.44631  0.89212  0.81300  Biso   1.000  H
  O29      1.0000 0.38692  0.89861  0.86947  Biso   1.000  O
  H75      1.0000 0.44904  0.02791  0.75791  Biso   1.000  H
  C46      1.0000 0.38201  0.14150  0.77071  Biso   1.000  C
  C47      1.0000 0.58093  0.85881  0.90061  Biso   1.000  C
  H76      1.0000 0.33550  0.88208  0.86112  Biso   1.000  H
  H77      1.0000 0.31862  0.12631  0.76250  Biso   1.000  H
  H78      1.0000 0.37809  0.17895  0.79540  Biso   1.000  H
  O30      1.0000 0.42432  0.18581  0.73652  Biso   1.000  O
  H79      1.0000 0.62569  0.81368  0.90391  Biso   1.000  H
  H80      1.0000 0.51874  0.83612  0.90292  Biso   1.000  H
  H81      1.0000 0.59053  0.90051  0.92260  Biso   1.000  H
  C48      1.0000 0.39651  0.15860  0.69601  Biso   1.000  C
  H82      1.0000 0.42810  0.19153  0.67450  Biso   1.000  H
  H83      1.0000 0.33004  0.16591  0.69302  Biso   1.000  H
  H84      1.0000 0.41213  0.09974  0.69251  Biso   1.000  H
  C49      1.0000 0.63305  0.48751  0.45851  Biso   1.000  C
  O31      1.0000 0.65364  0.53779  0.42541  Biso   1.000  O
  H85      1.0000 0.63375  0.42928  0.44942  Biso   1.000  H
  H86      1.0000 0.57134  0.50143  0.46900  Biso   1.000  H
  H87      1.0000 0.67780  0.49571  0.48101  Biso   1.000  H
  C50      1.0000 0.65672  0.62189  0.43382  Biso   1.000  C
  C51      1.0000 0.67094  0.67199  0.38993  Biso   1.000  C
  H88      1.0000 0.70799  0.63423  0.45321  Biso   1.000  H
  H89      1.0000 0.59880  0.63982  0.44740  Biso   1.000  H
  O32      1.0000 0.58381  0.66518  0.36707  Biso   1.000  O
  C52      1.0000 0.69223  0.76480  0.39831  Biso   1.000  C
  H90      1.0000 0.72151  0.64611  0.37321  Biso   1.000  H
  C53      1.0000 0.58360  0.70619  0.32762  Biso   1.000  C
  C54      1.0000 0.68824  0.81692  0.35760  Biso   1.000  C
  H91      1.0000 0.64874  0.78781  0.41969  Biso   1.000  H
  O33      1.0000 0.78721  0.77370  0.41298  Biso   1.000  O
  O34      1.0000 0.65399  0.67669  0.30023  Biso   1.000  O
  H92      1.0000 0.52273  0.69690  0.31381  Biso   1.000  H
  C55      1.0000 0.59781  0.80128  0.33375  Biso   1.000  C
  H93      1.0000 0.74084  0.80071  0.33911  Biso   1.000  H
  O35      1.0000 0.69594  0.90566  0.36762  Biso   1.000  O
  C56      1.0000 0.80493  0.79060  0.45735  Biso   1.000  C
  C57      1.0000 0.63172  0.61770  0.26694  Biso   1.000  C
  H94      1.0000 0.54563  0.82423  0.35061  Biso   1.000  H
  O36      1.0000 0.59760  0.83968  0.29237  Biso   1.000  O
  H95      1.0000 0.74490  0.91431  0.38059  Biso   1.000  H
  H96      1.0000 0.74560  0.80224  0.47212  Biso   1.000  H
  C58      1.0000 0.86685  0.86981  0.45896  Biso   1.000  C
  O37      1.0000 0.84871  0.72240  0.47658  Biso   1.000  O
  C59      1.0000 0.67864  0.53271  0.27648  Biso   1.000  C
  C60      1.0000 0.66415  0.65711  0.22521  Biso   1.000  C
  H97      1.0000 0.56363  0.60969  0.26592  Biso   1.000  H
  C61      1.0000 0.54970  0.91844  0.28932  Biso   1.000  C
  H98      1.0000 0.87764  0.88532  0.48900  Biso   1.000  H
  C62      1.0000 0.95917  0.85239  0.43806  Biso   1.000  C
  O38      1.0000 0.82034  0.93929  0.43767  Biso   1.000  O
  C63      1.0000 0.93472  0.69773  0.45539  Biso   1.000  C
  C64      1.0000 0.63725  0.48522  0.31343  Biso   1.000  C
  H99      1.0000 0.74490  0.54319  0.28261  Biso   1.000  H
  O39      1.0000 0.67255  0.47785  0.23927  Biso   1.000  O
  C65      1.0000 0.65644  0.59303  0.18919  Biso   1.000  C
  H100     1.0000 0.72992  0.67351  0.22829  Biso   1.000  H
  O40      1.0000 0.61154  0.73009  0.21538  Biso   1.000  O
  H101     1.0000 0.55369  0.93929  0.26039  Biso   1.000  H
  H102     1.0000 0.57771  0.95881  0.30852  Biso   1.000  H
  H103     1.0000 0.48512  0.91050  0.29690  Biso   1.000  H
  H104     1.0000 0.94901  0.84540  0.40711  Biso   1.000  H
  C66      1.0000 0.00315  0.77261  0.45526  Biso   1.000  C
  O41      1.0000 0.01842  0.92353  0.44457  Biso   1.000  O
  C67      1.0000 0.78322  0.99949  0.46640  Biso   1.000  C
  H105     1.0000 0.92001  0.68324  0.42550  Biso   1.000  H
  C68      1.0000 0.96904  0.61903  0.47761  Biso   1.000  C
  O42      1.0000 0.54010  0.47410  0.30678  Biso   1.000  O
  H106     1.0000 0.66730  0.43023  0.31609  Biso   1.000  H
  H107     1.0000 0.64762  0.51662  0.33982  Biso   1.000  H
  C69      1.0000 0.71044  0.51243  0.20126  Biso   1.000  C
  H108     1.0000 0.59039  0.57873  0.18460  Biso   1.000  H
  O43      1.0000 0.69531  0.62380  0.15028  Biso   1.000  O
  H109     1.0000 0.57253  0.73829  0.23429  Biso   1.000  H
  H110     1.0000 0.02627  0.78272  0.48441  Biso   1.000  H
  O44      1.0000 0.08083  0.75361  0.42724  Biso   1.000  O
  H111     1.0000 0.06934  0.91469  0.43321  Biso   1.000  H
  H112     1.0000 0.73790  0.97260  0.48470  Biso   1.000  H
  H113     1.0000 0.75366  0.04443  0.45051  Biso   1.000  H
  H114     1.0000 0.83281  0.02269  0.48361  Biso   1.000  H
  H115     1.0000 0.92001  0.57631  0.47719  Biso   1.000  H
  O45      1.0000 0.99433  0.63492  0.51880  Biso   1.000  O
  H116     1.0000 0.02241  0.59640  0.46210  Biso   1.000  H
  C70      1.0000 0.49541  0.42871  0.34011  Biso   1.000  C
  O46      1.0000 0.80493  0.53569  0.20803  Biso   1.000  O
  H117     1.0000 0.70624  0.47079  0.17789  Biso   1.000  H
  C71      1.0000 0.63256  0.66391  0.12190  Biso   1.000  C
  C72      1.0000 0.17104  0.74573  0.44444  Biso   1.000  C
  C73      1.0000 0.02634  0.56182  0.54050  Biso   1.000  C
  H118     1.0000 0.43013  0.42241  0.33349  Biso   1.000  H
  H119     1.0000 0.50221  0.45922  0.36659  Biso   1.000  H
  H120     1.0000 0.52364  0.37353  0.34290  Biso   1.000  H
  C74      1.0000 0.87771  0.49253  0.18540  Biso   1.000  C
  H121     1.0000 0.66576  0.68292  0.09689  Biso   1.000  H
  H122     1.0000 0.60412  0.71172  0.13590  Biso   1.000  H
  H123     1.0000 0.58472  0.62431  0.11349  Biso   1.000  H
  H124     1.0000 0.17125  0.76804  0.47382  Biso   1.000  H
  C75      1.0000 0.23737  0.79728  0.41745  Biso   1.000  C
  O47      1.0000 0.19766  0.65940  0.44518  Biso   1.000  O
  H125     1.0000 0.97696  0.52050  0.54172  Biso   1.000  H
  H126     1.0000 0.04497  0.57689  0.56910  Biso   1.000  H
  H127     1.0000 0.07894  0.53830  0.52541  Biso   1.000  H
  C76      1.0000 0.93612  0.56411  0.16514  Biso   1.000  C
  H128     1.0000 0.85074  0.45661  0.16289  Biso   1.000  H
  C77      1.0000 0.93423  0.43869  0.21641  Biso   1.000  C
  H129     1.0000 0.30013  0.79448  0.43009  Biso   1.000  H
  C78      1.0000 0.24102  0.76263  0.37237  Biso   1.000  C
  O48      1.0000 0.20705  0.88380  0.41677  Biso   1.000  O
  C79      1.0000 0.19444  0.61948  0.40322  Biso   1.000  C
  H130     1.0000 0.94635  0.60791  0.18700  Biso   1.000  H
  O49      1.0000 0.88695  0.60142  0.13053  Biso   1.000  O
  C80      1.0000 0.03075  0.53353  0.14983  Biso   1.000  C
  H131     1.0000 0.94901  0.47213  0.24209  Biso   1.000  H
  C81      1.0000 0.88205  0.35853  0.22932  Biso   1.000  C
  O50      1.0000 0.01982  0.41154  0.19606  Biso   1.000  O
  C82      1.0000 0.25944  0.66760  0.37163  Biso   1.000  C
  H132     1.0000 0.18001  0.77293  0.35892  Biso   1.000  H
  O51      1.0000 0.31043  0.80650  0.34791  Biso   1.000  O
  C83      1.0000 0.27254  0.94431  0.43009  Biso   1.000  C
  H133     1.0000 0.13042  0.62628  0.39250  Biso   1.000  H
  C84      1.0000 0.20985  0.52762  0.40910  Biso   1.000  C
  H134     1.0000 0.83554  0.61789  0.13891  Biso   1.000  H
  C85      1.0000 0.07852  0.47963  0.18370  Biso   1.000  C
  H135     1.0000 0.02234  0.49952  0.12379  Biso   1.000  H
  O52      1.0000 0.09267  0.60219  0.14081  Biso   1.000  O
  H136     1.0000 0.81866  0.37372  0.23750  Biso   1.000  H
  H137     1.0000 0.87813  0.32109  0.20460  Biso   1.000  H
  O53      1.0000 0.92435  0.31422  0.26348  Biso   1.000  O
  O54      1.0000 0.23997  0.64052  0.32900  Biso   1.000  O
  H138     1.0000 0.32514  0.65622  0.37870  Biso   1.000  H
  H139     1.0000 0.31176  0.78724  0.32351  Biso   1.000  H
  H140     1.0000 0.24515  0.99994  0.42839  Biso   1.000  H
  H141     1.0000 0.32668  0.94158  0.41179  Biso   1.000  H
  H142     1.0000 0.29082  0.93268  0.45921  Biso   1.000  H
  H143     1.0000 0.16866  0.50620  0.43131  Biso   1.000  H
  H144     1.0000 0.19577  0.49781  0.38261  Biso   1.000  H
  O55      1.0000 0.30251  0.51332  0.42059  Biso   1.000  O
  O56      1.0000 0.09974  0.53207  0.21940  Biso   1.000  O
  H145     1.0000 0.13686  0.45661  0.17192  Biso   1.000  H
  C86      1.0000 0.08097  0.64122  0.09939  Biso   1.000  C
  C87      1.0000 0.89655  0.34143  0.30399  Biso   1.000  C
  C88      1.0000 0.30686  0.59411  0.30585  Biso   1.000  C
  C89      1.0000 0.32374  0.42731  0.42380  Biso   1.000  C
  C90      1.0000 0.19325  0.52972  0.23754  Biso   1.000  C
  H146     1.0000 0.12573  0.68629  0.09609  Biso   1.000  H
  H147     1.0000 0.01870  0.66391  0.09711  Biso   1.000  H
  H148     1.0000 0.09057  0.59952  0.07740  Biso   1.000  H
  H149     1.0000 0.92814  0.30850  0.32550  Biso   1.000  H
  H150     1.0000 0.83001  0.33412  0.30701  Biso   1.000  H
  H151     1.0000 0.91217  0.40029  0.30749  Biso   1.000  H
  C91      1.0000 0.31701  0.63194  0.26200  Biso   1.000  C
  O57      1.0000 0.27975  0.50722  0.30251  Biso   1.000  O
  H152     1.0000 0.36716  0.59761  0.32081  Biso   1.000  H
  H153     1.0000 0.38776  0.42070  0.43260  Biso   1.000  H
  H154     1.0000 0.31477  0.40048  0.39642  Biso   1.000  H
  H155     1.0000 0.28325  0.40131  0.44460  Biso   1.000  H
  C92      1.0000 0.22771  0.62132  0.23593  Biso   1.000  C
  H156     1.0000 0.23373  0.49367  0.21981  Biso   1.000  H
  C93      1.0000 0.18863  0.49469  0.28245  Biso   1.000  C
  H157     1.0000 0.36856  0.60333  0.24701  Biso   1.000  H
  O58      1.0000 0.34146  0.71928  0.26858  Biso   1.000  O
  H158     1.0000 0.17917  0.65819  0.24810  Biso   1.000  H
  O59      1.0000 0.24382  0.64592  0.19269  Biso   1.000  O
  H159     1.0000 0.14093  0.52571  0.29879  Biso   1.000  H
  C94      1.0000 0.16915  0.40182  0.28486  Biso   1.000  C
  C95      1.0000 0.38138  0.76270  0.23259  Biso   1.000  C
  H160     1.0000 0.19542  0.64020  0.17882  Biso   1.000  H
  H161     1.0000 0.11697  0.38752  0.26620  Biso   1.000  H
  H162     1.0000 0.22358  0.37003  0.27542  Biso   1.000  H
  O60      1.0000 0.14716  0.38059  0.32784  Biso   1.000  O
  H163     1.0000 0.39497  0.82048  0.24039  Biso   1.000  H
  H164     1.0000 0.33768  0.76213  0.20909  Biso   1.000  H
  H165     1.0000 0.43798  0.73473  0.22399  Biso   1.000  H
  C96      1.0000 0.14226  0.29248  0.33481  Biso   1.000  C
  H166     1.0000 0.12762  0.28180  0.36441  Biso   1.000  H
  H167     1.0000 0.20144  0.26712  0.32791  Biso   1.000  H
  H168     1.0000 0.09435  0.26851  0.31690  Biso   1.000  H
  C97      1.0000 0.41914  0.35878  0.59941  Biso   1.000  C
  H169     1.0000 0.37431  0.31371  0.59610  Biso   1.000  H
  H170     1.0000 0.48133  0.33609  0.59710  Biso   1.000  H
  H171     1.0000 0.40954  0.40048  0.57742  Biso   1.000  H
  O61      1.0000 0.40744  0.39781  0.64082  Biso   1.000  O
  C98      1.0000 0.46929  0.46653  0.64984  Biso   1.000  C
  C99      1.0000 0.42152  0.52044  0.68371  Biso   1.000  C
  H172     1.0000 0.47769  0.50048  0.62381  Biso   1.000  H
  C100     1.0000 0.56391  0.43589  0.66516  Biso   1.000  C
  O62      1.0000 0.40036  0.46793  0.71941  Biso   1.000  O
  H173     1.0000 0.36324  0.54339  0.67190  Biso   1.000  H
  O63      1.0000 0.48021  0.58852  0.69604  Biso   1.000  O
  H174     1.0000 0.55369  0.39209  0.68702  Biso   1.000  H
  C101     1.0000 0.62233  0.50753  0.68542  Biso   1.000  C
  O64      1.0000 0.61315  0.39858  0.63055  Biso   1.000  O
  C102     1.0000 0.30679  0.47028  0.73755  Biso   1.000  C
  C103     1.0000 0.56581  0.56131  0.71643  Biso   1.000  C
  H175     1.0000 0.64930  0.54339  0.66291  Biso   1.000  H
  O65      1.0000 0.69517  0.46431  0.70802  Biso   1.000  O
  H176     1.0000 0.66450  0.38211  0.63890  Biso   1.000  H
  C104     1.0000 0.27233  0.37868  0.73591  Biso   1.000  C
  H177     1.0000 0.26630  0.50633  0.71980  Biso   1.000  H
  C105     1.0000 0.31141  0.50531  0.78243  Biso   1.000  C
  H178     1.0000 0.55103  0.52794  0.74211  Biso   1.000  H
  C106     1.0000 0.61799  0.64154  0.72933  Biso   1.000  C
  C107     1.0000 0.78966  0.48764  0.70127  Biso   1.000  C
  C108     1.0000 0.18302  0.36813  0.76201  Biso   1.000  C
  H179     1.0000 0.32080  0.34181  0.74811  Biso   1.000  H
  O66      1.0000 0.25622  0.35408  0.69270  Biso   1.000  O
  H180     1.0000 0.35911  0.47429  0.79881  Biso   1.000  H
  C109     1.0000 0.33088  0.59818  0.78484  Biso   1.000  C
  O67      1.0000 0.22021  0.49278  0.80250  Biso   1.000  O
  H181     1.0000 0.68145  0.62628  0.73752  Biso   1.000  H
  H182     1.0000 0.62191  0.67891  0.70461  Biso   1.000  H
  O68      1.0000 0.57575  0.68578  0.76349  Biso   1.000  O
  H183     1.0000 0.79379  0.52921  0.67790  Biso   1.000  H
  C110     1.0000 0.84359  0.40703  0.68920  Biso   1.000  C
  O69      1.0000 0.82755  0.52215  0.73929  Biso   1.000  O
  C111     1.0000 0.19318  0.40589  0.80584  Biso   1.000  C
  H184     1.0000 0.13147  0.39673  0.74702  Biso   1.000  H
  O70      1.0000 0.15858  0.28072  0.76860  Biso   1.000  O
  H185     1.0000 0.30462  0.35980  0.67880  Biso   1.000  H
  H186     1.0000 0.38313  0.61248  0.76622  Biso   1.000  H
  H187     1.0000 0.27653  0.63003  0.77540  Biso   1.000  H
  O71      1.0000 0.35295  0.61941  0.82786  Biso   1.000  O
  C112     1.0000 0.60349  0.65864  0.80401  Biso   1.000  C
  H188     1.0000 0.90964  0.42133  0.68461  Biso   1.000  H
  C113     1.0000 0.83596  0.34289  0.72522  Biso   1.000  C
  O72      1.0000 0.80472  0.37620  0.65029  Biso   1.000  O
  C114     1.0000 0.82146  0.46729  0.77649  Biso   1.000  C
  O73      1.0000 0.26014  0.35948  0.82902  Biso   1.000  O
  H189     1.0000 0.13287  0.40239  0.82080  Biso   1.000  H
  C115     1.0000 0.11872  0.23730  0.73261  Biso   1.000  C
  C116     1.0000 0.35778  0.70752  0.83483  Biso   1.000  C
  H190     1.0000 0.57190  0.69150  0.82552  Biso   1.000  H
  H191     1.0000 0.67003  0.66588  0.80702  Biso   1.000  H
  H192     1.0000 0.58794  0.59971  0.80751  Biso   1.000  H
  H193     1.0000 0.77012  0.32649  0.72831  Biso   1.000  H
  C117     1.0000 0.86832  0.38230  0.76696  Biso   1.000  C
  O74      1.0000 0.88856  0.26991  0.71540  Biso   1.000  O
  C118     1.0000 0.86755  0.33609  0.62191  Biso   1.000  C
  H194     1.0000 0.75513  0.45681  0.78263  Biso   1.000  H
  C119     1.0000 0.86286  0.51478  0.81345  Biso   1.000  C
  C120     1.0000 0.24060  0.33240  0.87165  Biso   1.000  C
  H195     1.0000 0.10513  0.17952  0.74041  Biso   1.000  H
  H196     1.0000 0.16243  0.23787  0.70911  Biso   1.000  H
  H197     1.0000 0.06199  0.26527  0.72400  Biso   1.000  H
  H198     1.0000 0.37242  0.71820  0.86443  Biso   1.000  H
  H199     1.0000 0.29859  0.73288  0.82792  Biso   1.000  H
  H200     1.0000 0.40569  0.73149  0.81691  Biso   1.000  H
  H201     1.0000 0.93640  0.39031  0.76590  Biso   1.000  H
  O75      1.0000 0.84605  0.32337  0.80025  Biso   1.000  O
  H202     1.0000 0.92751  0.26171  0.73431  Biso   1.000  H
  H203     1.0000 0.83435  0.31708  0.59691  Biso   1.000  H
  H204     1.0000 0.89592  0.28828  0.63591  Biso   1.000  H
  H205     1.0000 0.91532  0.37569  0.61350  Biso   1.000  H
  H206     1.0000 0.83274  0.56983  0.81611  Biso   1.000  H
  H207     1.0000 0.85242  0.48338  0.83980  Biso   1.000  H
  O76      1.0000 0.95994  0.52590  0.80680  Biso   1.000  O
  C121     1.0000 0.25902  0.23743  0.87239  Biso   1.000  C
  H208     1.0000 0.17490  0.34378  0.87871  Biso   1.000  H
  C122     1.0000 0.30560  0.38052  0.90321  Biso   1.000  C
  C123     1.0000 0.91644  0.29381  0.82763  Biso   1.000  C
  C124     1.0000 0.00462  0.57129  0.84012  Biso   1.000  C
  C125     1.0000 0.26273  0.20272  0.91743  Biso   1.000  C
  H209     1.0000 0.32003  0.22713  0.85890  Biso   1.000  H
  O77      1.0000 0.18961  0.19350  0.84792  Biso   1.000  O
  H210     1.0000 0.36962  0.37372  0.89252  Biso   1.000  H
  C126     1.0000 0.29019  0.47238  0.90911  Biso   1.000  C
  O78      1.0000 0.30244  0.34060  0.94520  Biso   1.000  O
  H211     1.0000 0.97731  0.30310  0.81380  Biso   1.000  H
  C127     1.0000 0.90222  0.19872  0.83377  Biso   1.000  C
  O79      1.0000 0.91623  0.33482  0.86709  Biso   1.000  O
  H212     1.0000 0.99783  0.54078  0.86661  Biso   1.000  H
  H213     1.0000 0.97647  0.62653  0.84292  Biso   1.000  H
  H214     1.0000 0.06990  0.57759  0.83351  Biso   1.000  H
  C128     1.0000 0.32899  0.25427  0.94446  Biso   1.000  C
  H215     1.0000 0.19990  0.20552  0.93011  Biso   1.000  H
  O80      1.0000 0.29299  0.11620  0.91679  Biso   1.000  O
  H216     1.0000 0.18827  0.21283  0.82353  Biso   1.000  H
  H217     1.0000 0.33144  0.49380  0.93130  Biso   1.000  H
  H218     1.0000 0.30434  0.50219  0.88260  Biso   1.000  H
  O81      1.0000 0.19752  0.48668  0.92058  Biso   1.000  O
  H219     1.0000 0.95440  0.17583  0.85062  Biso   1.000  H
  C129     1.0000 0.81180  0.18308  0.85759  Biso   1.000  C
  O82      1.0000 0.90243  0.16032  0.79238  Biso   1.000  O
  C130     1.0000 0.82910  0.32801  0.88992  Biso   1.000  C
  O83      1.0000 0.41921  0.24639  0.92725  Biso   1.000  O
  H220     1.0000 0.32878  0.23203  0.97380  Biso   1.000  H
  C131     1.0000 0.22750  0.05569  0.93011  Biso   1.000  C
  C132     1.0000 0.17630  0.57269  0.92382  Biso   1.000  C
  H221     1.0000 0.75919  0.19929  0.83910  Biso   1.000  H
  C133     1.0000 0.80780  0.23520  0.89833  Biso   1.000  C
  O84      1.0000 0.80416  0.09440  0.86764  Biso   1.000  O
  C134     1.0000 0.95034  0.08162  0.78930  Biso   1.000  C
  H222     1.0000 0.77852  0.35389  0.87322  Biso   1.000  H
  C135     1.0000 0.84331  0.37811  0.93380  Biso   1.000  C
  C136     1.0000 0.49688  0.22739  0.95525  Biso   1.000  C
  H223     1.0000 0.25482  0.00013  0.92841  Biso   1.000  H
  H224     1.0000 0.17343  0.05842  0.91181  Biso   1.000  H
  H225     1.0000 0.20922  0.06732  0.95923  Biso   1.000  H
  H226     1.0000 0.11228  0.57930  0.93261  Biso   1.000  H
  H227     1.0000 0.18533  0.59952  0.89640  Biso   1.000  H
  H228     1.0000 0.21678  0.59869  0.94462  Biso   1.000  H
  H229     1.0000 0.85130  0.21219  0.91971  Biso   1.000  H
  O85      1.0000 0.71282  0.22630  0.91297  Biso   1.000  O
  H230     1.0000 0.75513  0.08569  0.88061  Biso   1.000  H
  H231     1.0000 0.94635  0.06071  0.76041  Biso   1.000  H
  H232     1.0000 0.92232  0.04119  0.80850  Biso   1.000  H
  H233     1.0000 0.01492  0.08950  0.79691  Biso   1.000  H
  H234     1.0000 0.79204  0.36577  0.95322  Biso   1.000  H
  H235     1.0000 0.90124  0.36018  0.94741  Biso   1.000  H
  O86      1.0000 0.84640  0.46221  0.92542  Biso   1.000  O
  C137     1.0000 0.54094  0.14761  0.93804  Biso   1.000  C
  H236     1.0000 0.47384  0.21728  0.98440  Biso   1.000  H
  C138     1.0000 0.56531  0.30233  0.95538  Biso   1.000  C
  C139     1.0000 0.69510  0.20940  0.95737  Biso   1.000  C
  C140     1.0000 0.86706  0.51249  0.95852  Biso   1.000  C
  C141     1.0000 0.63326  0.13019  0.95894  Biso   1.000  C
  H237     1.0000 0.55103  0.15460  0.90712  Biso   1.000  H
  O87      1.0000 0.48161  0.07647  0.94456  Biso   1.000  O
  H238     1.0000 0.58002  0.31683  0.92552  Biso   1.000  H
  C142     1.0000 0.53099  0.38103  0.97762  Biso   1.000  C
  O88      1.0000 0.65133  0.27760  0.97660  Biso   1.000  O
  H239     1.0000 0.75443  0.19783  0.97210  Biso   1.000  H
  H240     1.0000 0.86636  0.57072  0.94940  Biso   1.000  H
  H241     1.0000 0.92877  0.49863  0.96902  Biso   1.000  H
  H242     1.0000 0.82223  0.50429  0.98103  Biso   1.000  H
  H243     1.0000 0.62240  0.11468  0.98902  Biso   1.000  H
  O89      1.0000 0.67969  0.06071  0.93769  Biso   1.000  O
  H244     1.0000 0.43069  0.08531  0.93322  Biso   1.000  H
  H245     1.0000 0.58002  0.42369  0.97721  Biso   1.000  H
  H246     1.0000 0.47762  0.40360  0.96212  Biso   1.000  H
  O90      1.0000 0.50571  0.36508  0.01881  Biso   1.000  O
  C143     1.0000 0.71682  0.00051  0.96642  Biso   1.000  C
  C144     1.0000 0.47370  0.43818  0.04051  Biso   1.000  C
  H247     1.0000 0.76213  0.02740  0.98472  Biso   1.000  H
  H248     1.0000 0.74645  0.95563  0.95053  Biso   1.000  H
  H249     1.0000 0.66723  0.97731  0.98363  Biso   1.000  H
  H250     1.0000 0.45514  0.42311  0.06912  Biso   1.000  H
  H251     1.0000 0.42110  0.46170  0.02543  Biso   1.000  H
  H252     1.0000 0.52315  0.47950  0.04170  Biso   1.000  H
  C145     1.0000 0.36751  0.16388  0.37812  Biso   1.000  C
  O91      1.0000 0.30469  0.12383  0.34974  Biso   1.000  O
  H253     1.0000 0.33431  0.18289  0.40309  Biso   1.000  H
  H254     1.0000 0.39588  0.21168  0.36409  Biso   1.000  H
  H255     1.0000 0.41528  0.12428  0.38650  Biso   1.000  H
  C146     1.0000 0.34363  0.09300  0.31083  Biso   1.000  C
  C147     1.0000 0.33592  0.15708  0.27481  Biso   1.000  C
  C148     1.0000 0.28963  0.01240  0.29876  Biso   1.000  C
  H256     1.0000 0.40961  0.07870  0.31542  Biso   1.000  H
  H257     1.0000 0.27008  0.17348  0.27169  Biso   1.000  H
  C149     1.0000 0.36828  0.11773  0.23304  Biso   1.000  C
  O92      1.0000 0.38853  0.23012  0.28463  Biso   1.000  O
  O93      1.0000 0.19514  0.03566  0.29198  Biso   1.000  O
  H258     1.0000 0.29383  0.97082  0.32210  Biso   1.000  H
  O94      1.0000 0.32752  0.97788  0.26075  Biso   1.000  O
  H259     1.0000 0.43644  0.10972  0.23410  Biso   1.000  H
  C150     1.0000 0.32143  0.03267  0.22351  Biso   1.000  C
  O95      1.0000 0.34601  0.17666  0.19975  Biso   1.000  O
  H260     1.0000 0.42754  0.23832  0.26569  Biso   1.000  H
  C151     1.0000 0.12229  0.99250  0.31458  Biso   1.000  C
  H261     1.0000 0.25510  0.04323  0.21741  Biso   1.000  H
  C152     1.0000 0.36282  0.98519  0.18655  Biso   1.000  C
  C153     1.0000 0.41640  0.20622  0.17240  Biso   1.000  C
  C154     1.0000 0.06388  0.06408  0.33484  Biso   1.000  C
  H262     1.0000 0.14933  0.95658  0.33709  Biso   1.000  H
  C155     1.0000 0.06577  0.93872  0.28360  Biso   1.000  C
  H263     1.0000 0.35238  0.01659  0.16020  Biso   1.000  H
  H264     1.0000 0.33270  0.93020  0.18389  Biso   1.000  H
  O96      1.0000 0.45990  0.97413  0.19323  Biso   1.000  O
  H265     1.0000 0.47734  0.19687  0.18620  Biso   1.000  H
  C156     1.0000 0.40219  0.30132  0.16627  Biso   1.000  C
  O97      1.0000 0.41619  0.16522  0.13291  Biso   1.000  O
  H266     1.0000 0.05372  0.10788  0.31301  Biso   1.000  H
  O98      1.0000 0.11312  0.10139  0.36945  Biso   1.000  O
  C157     1.0000 0.96939  0.03350  0.35016  Biso   1.000  C
  O99      1.0000 0.98025  0.91151  0.30396  Biso   1.000  O
  H267     1.0000 0.05099  0.97209  0.25789  Biso   1.000  H
  C158     1.0000 0.11802  0.85850  0.27070  Biso   1.000  C
  C159     1.0000 0.50459  0.92868  0.15991  Biso   1.000  C
  H268     1.0000 0.45444  0.32420  0.14941  Biso   1.000  H
  C160     1.0000 0.31183  0.31689  0.14241  Biso   1.000  C
  O100     1.0000 0.40240  0.33971  0.20762  Biso   1.000  O
  C161     1.0000 0.32913  0.17202  0.11008  Biso   1.000  C
  H269     1.0000 0.16453  0.11792  0.36110  Biso   1.000  H
  C162     1.0000 0.92148  0.97959  0.31632  Biso   1.000  C
  H270     1.0000 0.97780  0.99949  0.37619  Biso   1.000  H
  O101     1.0000 0.90747  0.10222  0.35918  Biso   1.000  O
  H271     1.0000 0.18141  0.87369  0.26251  Biso   1.000  H
  H272     1.0000 0.12187  0.82112  0.29542  Biso   1.000  H
  O102     1.0000 0.07572  0.81419  0.23651  Biso   1.000  O
  H273     1.0000 0.56994  0.92238  0.16649  Biso   1.000  H
  H274     1.0000 0.49779  0.95919  0.13339  Biso   1.000  H
  H275     1.0000 0.47643  0.87350  0.15712  Biso   1.000  H
  H276     1.0000 0.25923  0.30068  0.16090  Biso   1.000  H
  C163     1.0000 0.30784  0.26483  0.10167  Biso   1.000  C
  O103     1.0000 0.30413  0.40563  0.13240  Biso   1.000  O
  C164     1.0000 0.45030  0.41841  0.21070  Biso   1.000  C
  H277     1.0000 0.27849  0.14608  0.12681  Biso   1.000  H
  C165     1.0000 0.34328  0.12192  0.06620  Biso   1.000  C
  H278     1.0000 0.86328  0.95658  0.32810  Biso   1.000  H
  O104     1.0000 0.90040  0.03204  0.28062  Biso   1.000  O
  C166     1.0000 0.91917  0.14119  0.40059  Biso   1.000  C
  C167     1.0000 0.10352  0.84140  0.19599  Biso   1.000  C
  H279     1.0000 0.35133  0.28778  0.08029  Biso   1.000  H
  O105     1.0000 0.21279  0.27373  0.08703  Biso   1.000  O
  H280     1.0000 0.25510  0.41428  0.11939  Biso   1.000  H
  H281     1.0000 0.44631  0.43932  0.23959  Biso   1.000  H
  H282     1.0000 0.42229  0.45878  0.19150  Biso   1.000  H
  H283     1.0000 0.51488  0.41053  0.20309  Biso   1.000  H
  H284     1.0000 0.29201  0.13419  0.04681  Biso   1.000  H
  H285     1.0000 0.40120  0.13979  0.05259  Biso   1.000  H
  O106     1.0000 0.34643  0.03782  0.07461  Biso   1.000  O
  C168     1.0000 0.80689  0.02969  0.26245  Biso   1.000  C
  H286     1.0000 0.87434  0.18632  0.40390  Biso   1.000  H
  H287     1.0000 0.98137  0.16388  0.40290  Biso   1.000  H
  H288     1.0000 0.90957  0.09949  0.42261  Biso   1.000  H
  H289     1.0000 0.07193  0.80847  0.17452  Biso   1.000  H
  H290     1.0000 0.16999  0.83409  0.19301  Biso   1.000  H
  H291     1.0000 0.08790  0.90032  0.19249  Biso   1.000  H
  C169     1.0000 0.19514  0.29057  0.04263  Biso   1.000  C
  C170     1.0000 0.36702  0.98748  0.04151  Biso   1.000  C
  H292     1.0000 0.76634  0.99371  0.28020  Biso   1.000  H
  C171     1.0000 0.81144  0.99472  0.21757  Biso   1.000  C
  C172     1.0000 0.77236  0.12129  0.26409  Biso   1.000  C
  H293     1.0000 0.25440  0.30221  0.02790  Biso   1.000  H
  C173     1.0000 0.13322  0.36978  0.04106  Biso   1.000  C
  O107     1.0000 0.15129  0.22243  0.02344  Biso   1.000  O
  H294     1.0000 0.42873  0.00140  0.03101  Biso   1.000  H
  H295     1.0000 0.36632  0.92931  0.05060  Biso   1.000  H
  H296     1.0000 0.32220  0.99568  0.01901  Biso   1.000  H
  C174     1.0000 0.83099  0.90179  0.21516  Biso   1.000  C
  H297     1.0000 0.85914  0.02568  0.20119  Biso   1.000  H
  O108     1.0000 0.72025  0.00718  0.19750  Biso   1.000  O
  C175     1.0000 0.68306  0.13191  0.23799  Biso   1.000  C
  H298     1.0000 0.82083  0.15822  0.25192  Biso   1.000  H
  O109     1.0000 0.75618  0.14589  0.30733  Biso   1.000  O
  H299     1.0000 0.12243  0.38529  0.01101  Biso   1.000  H
  C176     1.0000 0.04090  0.35243  0.06196  Biso   1.000  C
  O110     1.0000 0.17973  0.43932  0.06231  Biso   1.000  O
  C177     1.0000 0.06528  0.19770  0.04462  Biso   1.000  C
  H300     1.0000 0.88317  0.88748  0.23381  Biso   1.000  H
  H301     1.0000 0.77656  0.87000  0.22460  Biso   1.000  H
  O111     1.0000 0.85298  0.88062  0.17214  Biso   1.000  O
  C178     1.0000 0.69321  0.09408  0.19416  Biso   1.000  C
  H302     1.0000 0.63151  0.10330  0.25301  Biso   1.000  H
  O112     1.0000 0.65861  0.21931  0.23140  Biso   1.000  O
  H303     1.0000 0.80465  0.14023  0.32120  Biso   1.000  H
  H304     1.0000 0.05099  0.34543  0.09291  Biso   1.000  H
  C179     1.0000 0.99699  0.27258  0.04475  Biso   1.000  C
  O113     1.0000 0.98165  0.42350  0.05544  Biso   1.000  O
  C180     1.0000 0.21678  0.49952  0.03361  Biso   1.000  C
  H305     1.0000 0.07999  0.18321  0.07451  Biso   1.000  H
  C181     1.0000 0.03103  0.11900  0.02241  Biso   1.000  C
  C182     1.0000 0.85788  0.79251  0.16521  Biso   1.000  C
  O114     1.0000 0.76017  0.14055  0.17102  Biso   1.000  O
  H306     1.0000 0.63298  0.09758  0.17920  Biso   1.000  H
  C183     1.0000 0.61876  0.26273  0.26739  Biso   1.000  C
  H307     1.0000 0.97380  0.28269  0.01560  Biso   1.000  H
  O115     1.0000 0.91917  0.25358  0.07278  Biso   1.000  O
  H308     1.0000 0.93080  0.41472  0.06681  Biso   1.000  H
  H309     1.0000 0.24641  0.54440  0.04950  Biso   1.000  H
  H310     1.0000 0.16719  0.52273  0.01641  Biso   1.000  H
  H311     1.0000 0.26210  0.47263  0.01531  Biso   1.000  H
  H312     1.0000 0.07999  0.07628  0.02279  Biso   1.000  H
  H313     1.0000 0.97766  0.09637  0.03791  Biso   1.000  H
  O116     1.0000 0.00567  0.13489  0.98119  Biso   1.000  O
  H314     1.0000 0.87245  0.78177  0.13561  Biso   1.000  H
  H315     1.0000 0.79863  0.76708  0.17211  Biso   1.000  H
  H316     1.0000 0.90572  0.76848  0.18309  Biso   1.000  H
  C184     1.0000 0.74063  0.16763  0.12838  Biso   1.000  C
  H317     1.0000 0.60510  0.32051  0.25959  Biso   1.000  H
  H318     1.0000 0.66246  0.26209  0.29089  Biso   1.000  H
  H319     1.0000 0.56202  0.23470  0.27600  Biso   1.000  H
  C185     1.0000 0.82910  0.24569  0.05557  Biso   1.000  C
  C186     1.0000 0.97373  0.06179  0.95949  Biso   1.000  C
  C187     1.0000 0.75905  0.26260  0.12764  Biso   1.000  C
  H320     1.0000 0.67486  0.15619  0.12129  Biso   1.000  H
  C188     1.0000 0.80563  0.11951  0.09679  Biso   1.000  C
  H321     1.0000 0.82889  0.26801  0.02620  Biso   1.000  H
  C189     1.0000 0.76270  0.29731  0.08257  Biso   1.000  C
  O117     1.0000 0.80248  0.15943  0.05483  Biso   1.000  O
  H322     1.0000 0.95517  0.07692  0.93091  Biso   1.000  H
  H323     1.0000 0.92120  0.03833  0.97461  Biso   1.000  H
  H324     1.0000 0.02311  0.02047  0.95830  Biso   1.000  H
  H325     1.0000 0.82006  0.27290  0.14110  Biso   1.000  H
  O118     1.0000 0.68957  0.30653  0.15211  Biso   1.000  O
  H326     1.0000 0.86958  0.12631  0.10752  Biso   1.000  H
  C190     1.0000 0.79029  0.02759  0.09089  Biso   1.000  C
  H327     1.0000 0.69987  0.29451  0.06989  Biso   1.000  H
  O119     1.0000 0.79302  0.38383  0.08321  Biso   1.000  O
  H328     1.0000 0.68838  0.28720  0.17651  Biso   1.000  H
  H329     1.0000 0.80430  0.99778  0.11740  Biso   1.000  H
  H330     1.0000 0.83141  0.00623  0.06870  Biso   1.000  H
  O120     1.0000 0.69756  0.01329  0.07942  Biso   1.000  O
  C191     1.0000 0.72753  0.44428  0.06989  Biso   1.000  C
  C192     1.0000 0.67626  0.92728  0.07621  Biso   1.000  C
  H331     1.0000 0.75485  0.49990  0.07159  Biso   1.000  H
  H332     1.0000 0.67339  0.44161  0.08819  Biso   1.000  H
  H333     1.0000 0.70925  0.43271  0.04080  Biso   1.000  H
  H334     1.0000 0.61231  0.92073  0.06739  Biso   1.000  H
  H335     1.0000 0.68530  0.90051  0.10360  Biso   1.000  H
  H336     1.0000 0.71689  0.90128  0.05541  Biso   1.000  H
