data_image0
_cell_length_a       28.801
_cell_length_b       15.674
_cell_length_c       29.28
_cell_angle_alpha    90
_cell_angle_beta     102.37
_cell_angle_gamma    90

_symmetry_space_group_name_H-M    "P 1"
_symmetry_int_tables_number       1

loop_
  _symmetry_equiv_pos_as_xyz
  'x, y, z'

loop_
  _atom_site_label
  _atom_site_occupancy
  _atom_site_fract_x
  _atom_site_fract_y
  _atom_site_fract_z
  _atom_site_thermal_displace_type
  _atom_site_B_iso_or_equiv
  _atom_site_type_symbol
  C1       1.0000 0.26144  0.55831  0.44542  Biso   1.000  C
  C2       1.0000 0.25894  0.57101  0.39772  Biso   1.000  C
  C3       1.0000 0.24203  0.61752  0.47104  Biso   1.000  C
  H1       1.0000 0.27723  0.51008  0.46049  Biso   1.000  H
  C4       1.0000 0.28456  0.51250  0.37059  Biso   1.000  C
  C5       1.0000 0.23472  0.64208  0.37661  Biso   1.000  C
  C6       1.0000 0.22073  0.69121  0.44979  Biso   1.000  C
  H2       1.0000 0.24392  0.60629  0.50542  Biso   1.000  H
  N1       1.0000 0.31883  0.55780  0.34811  Biso   1.000  N
  H3       1.0000 0.29962  0.46708  0.39000  Biso   1.000  H
  H4       1.0000 0.26270  0.48482  0.34531  Biso   1.000  H
  C7       1.0000 0.21774  0.70461  0.40227  Biso   1.000  C
  H5       1.0000 0.23250  0.65152  0.34391  Biso   1.000  H
  H6       1.0000 0.20873  0.73529  0.46930  Biso   1.000  H
  C8       1.0000 0.33442  0.49828  0.31545  Biso   1.000  C
  C9       1.0000 0.35974  0.59028  0.38262  Biso   1.000  C
  C10      1.0000 0.19820  0.78742  0.37933  Biso   1.000  C
  C11      1.0000 0.36875  0.53751  0.28895  Biso   1.000  C
  H7       1.0000 0.34582  0.44309  0.33161  Biso   1.000  H
  H8       1.0000 0.30660  0.47939  0.29612  Biso   1.000  H
  C12      1.0000 0.35180  0.67673  0.40304  Biso   1.000  C
  H9       1.0000 0.38812  0.59812  0.36671  Biso   1.000  H
  H10      1.0000 0.36963  0.55149  0.41000  Biso   1.000  H
  N2       1.0000 0.22601  0.82213  0.34678  Biso   1.000  N
  H11      1.0000 0.19071  0.82780  0.40251  Biso   1.000  H
  H12      1.0000 0.16320  0.77319  0.35940  Biso   1.000  H
  C13      1.0000 0.35432  0.59972  0.25472  Biso   1.000  C
  C14      1.0000 0.41614  0.51110  0.29961  Biso   1.000  C
  C15      1.0000 0.32023  0.73498  0.37769  Biso   1.000  C
  C16      1.0000 0.37542  0.69810  0.44807  Biso   1.000  C
  C17      1.0000 0.26926  0.86730  0.37147  Biso   1.000  C
  C18      1.0000 0.19707  0.88382  0.31482  Biso   1.000  C
  C19      1.0000 0.38627  0.63500  0.23035  Biso   1.000  C
  H13      1.0000 0.31870  0.62007  0.24612  Biso   1.000  H
  C20      1.0000 0.44821  0.54600  0.27545  Biso   1.000  C
  H14      1.0000 0.42531  0.46198  0.32241  Biso   1.000  H
  C21      1.0000 0.30820  0.81000  0.39769  Biso   1.000  C
  H15      1.0000 0.30343  0.72279  0.34531  Biso   1.000  H
  C22      1.0000 0.36692  0.77568  0.46737  Biso   1.000  C
  H16      1.0000 0.39771  0.65918  0.46510  Biso   1.000  H
  H17      1.0000 0.28130  0.89747  0.34689  Biso   1.000  H
  H18      1.0000 0.25962  0.91100  0.39290  Biso   1.000  H
  C23      1.0000 0.15205  0.84618  0.28573  Biso   1.000  C
  H19      1.0000 0.21470  0.90360  0.29119  Biso   1.000  H
  H20      1.0000 0.18880  0.93601  0.33189  Biso   1.000  H
  C24      1.0000 0.37313  0.70639  0.19552  Biso   1.000  C
  C25      1.0000 0.43346  0.60699  0.24108  Biso   1.000  C
  H21      1.0000 0.48031  0.52782  0.28339  Biso   1.000  H
  C26      1.0000 0.33255  0.83061  0.44283  Biso   1.000  C
  H22      1.0000 0.38000  0.79297  0.49860  Biso   1.000  H
  C27      1.0000 0.15317  0.78468  0.25147  Biso   1.000  C
  C28      1.0000 0.10886  0.87246  0.29388  Biso   1.000  C
  N3       1.0000 0.32472  0.70148  0.16664  Biso   1.000  N
  H23      1.0000 0.37662  0.76407  0.21301  Biso   1.000  H
  H24      1.0000 0.39770  0.71092  0.17619  Biso   1.000  H
  H25      1.0000 0.45712  0.62837  0.22119  Biso   1.000  H
  H26      1.0000 0.32492  0.88267  0.45709  Biso   1.000  H
  C29      1.0000 0.11147  0.75010  0.22517  Biso   1.000  C
  H27      1.0000 0.18461  0.76681  0.24741  Biso   1.000  H
  C30      1.0000 0.06678  0.83827  0.26821  Biso   1.000  C
  H28      1.0000 0.10881  0.91770  0.31881  Biso   1.000  H
  C31      1.0000 0.31457  0.78429  0.14203  Biso   1.000  C
  C32      1.0000 0.32244  0.62862  0.13433  Biso   1.000  C
  C33      1.0000 0.11131  0.67807  0.19066  Biso   1.000  C
  C34      1.0000 0.06805  0.77810  0.23353  Biso   1.000  C
  H29      1.0000 0.03720  0.85600  0.27489  Biso   1.000  H
  C35      1.0000 0.26466  0.79348  0.11392  Biso   1.000  C
  H30      1.0000 0.32131  0.82602  0.16468  Biso   1.000  H
  H31      1.0000 0.33681  0.79240  0.12140  Biso   1.000  H
  C36      1.0000 0.27243  0.59997  0.11245  Biso   1.000  C
  H32      1.0000 0.34231  0.57949  0.15430  Biso   1.000  H
  H33      1.0000 0.33999  0.63908  0.10892  Biso   1.000  H
  N4       1.0000 0.14929  0.68138  0.16430  Biso   1.000  N
  H34      1.0000 0.07809  0.67481  0.16979  Biso   1.000  H
  H35      1.0000 0.11152  0.62339  0.20549  Biso   1.000  H
  H36      1.0000 0.03912  0.75622  0.21500  Biso   1.000  H
  C37      1.0000 0.25639  0.80930  0.06622  Biso   1.000  C
  C38      1.0000 0.22573  0.78231  0.13493  Biso   1.000  C
  C39      1.0000 0.26091  0.57579  0.06545  Biso   1.000  C
  C40      1.0000 0.23667  0.59959  0.13766  Biso   1.000  C
  C41      1.0000 0.13877  0.75131  0.13007  Biso   1.000  C
  C42      1.0000 0.15044  0.59678  0.14217  Biso   1.000  C
  C43      1.0000 0.21035  0.81000  0.03975  Biso   1.000  C
  H37      1.0000 0.28789  0.81689  0.05301  Biso   1.000  H
  C44      1.0000 0.17973  0.77721  0.10832  Biso   1.000  C
  H38      1.0000 0.23201  0.76962  0.16870  Biso   1.000  H
  C45      1.0000 0.21463  0.55640  0.04395  Biso   1.000  C
  H39      1.0000 0.28579  0.57841  0.04752  Biso   1.000  H
  C46      1.0000 0.18962  0.58517  0.11594  Biso   1.000  C
  H40      1.0000 0.24482  0.61797  0.17059  Biso   1.000  H
  H41      1.0000 0.10839  0.73351  0.10468  Biso   1.000  H
  H42      1.0000 0.12971  0.80158  0.14440  Biso   1.000  H
  H43      1.0000 0.15431  0.55340  0.16790  Biso   1.000  H
  H44      1.0000 0.12079  0.57981  0.12259  Biso   1.000  H
  C47      1.0000 0.17222  0.79240  0.06042  Biso   1.000  C
  H45      1.0000 0.20510  0.82302  0.00720  Biso   1.000  H
  C48      1.0000 0.17883  0.56272  0.06878  Biso   1.000  C
  H46      1.0000 0.20859  0.54351  0.00951  Biso   1.000  H
  H47      1.0000 0.14082  0.79029  0.04140  Biso   1.000  H
  H48      1.0000 0.14370  0.55353  0.05479  Biso   1.000  H
  C49      1.0000 0.26096  0.42421  0.56548  Biso   1.000  C
  C50      1.0000 0.27247  0.40003  0.61244  Biso   1.000  C
  C51      1.0000 0.21468  0.44360  0.54395  Biso   1.000  C
  H49      1.0000 0.28583  0.42159  0.54751  Biso   1.000  H
  C52      1.0000 0.32249  0.37138  0.63437  Biso   1.000  C
  C53      1.0000 0.23672  0.40041  0.63765  Biso   1.000  C
  C54      1.0000 0.17884  0.43728  0.56881  Biso   1.000  C
  H50      1.0000 0.20863  0.45649  0.50951  Biso   1.000  H
  N5       1.0000 0.32473  0.29852  0.66664  Biso   1.000  N
  H51      1.0000 0.34232  0.42051  0.65429  Biso   1.000  H
  H52      1.0000 0.34004  0.36092  0.60891  Biso   1.000  H
  C55      1.0000 0.18963  0.41483  0.61594  Biso   1.000  C
  H53      1.0000 0.24483  0.38197  0.67059  Biso   1.000  H
  H54      1.0000 0.14371  0.44647  0.55479  Biso   1.000  H
  C56      1.0000 0.31461  0.21571  0.64202  Biso   1.000  C
  C57      1.0000 0.37313  0.29361  0.69552  Biso   1.000  C
  C58      1.0000 0.15048  0.40322  0.64216  Biso   1.000  C
  C59      1.0000 0.26470  0.20652  0.61391  Biso   1.000  C
  H55      1.0000 0.32132  0.17398  0.66471  Biso   1.000  H
  H56      1.0000 0.33682  0.20760  0.62139  Biso   1.000  H
  C60      1.0000 0.38632  0.36500  0.73038  Biso   1.000  C
  H57      1.0000 0.37663  0.23587  0.71300  Biso   1.000  H
  H58      1.0000 0.39771  0.28908  0.67622  Biso   1.000  H
  N6       1.0000 0.14929  0.31862  0.66429  Biso   1.000  N
  H59      1.0000 0.15431  0.44660  0.66790  Biso   1.000  H
  H60      1.0000 0.12084  0.42019  0.62262  Biso   1.000  H
  C61      1.0000 0.25640  0.19070  0.56622  Biso   1.000  C
  C62      1.0000 0.22574  0.21769  0.63492  Biso   1.000  C
  C63      1.0000 0.35433  0.40028  0.75471  Biso   1.000  C
  C64      1.0000 0.43351  0.39301  0.74108  Biso   1.000  C
  C65      1.0000 0.13878  0.24869  0.63006  Biso   1.000  C
  C66      1.0000 0.11132  0.32187  0.69066  Biso   1.000  C
  C67      1.0000 0.21040  0.19000  0.53979  Biso   1.000  C
  H61      1.0000 0.28793  0.18311  0.55300  Biso   1.000  H
  C68      1.0000 0.17974  0.22279  0.60832  Biso   1.000  C
  H62      1.0000 0.23202  0.23038  0.66870  Biso   1.000  H
  C69      1.0000 0.36876  0.46249  0.78894  Biso   1.000  C
  H63      1.0000 0.31874  0.37993  0.74611  Biso   1.000  H
  C70      1.0000 0.44821  0.45400  0.77545  Biso   1.000  C
  H64      1.0000 0.45713  0.37157  0.72122  Biso   1.000  H
  H65      1.0000 0.10844  0.26649  0.60471  Biso   1.000  H
  H66      1.0000 0.12972  0.19842  0.64440  Biso   1.000  H
  C71      1.0000 0.11148  0.24990  0.72517  Biso   1.000  C
  H67      1.0000 0.07813  0.32519  0.66978  Biso   1.000  H
  H68      1.0000 0.11154  0.37661  0.70552  Biso   1.000  H
  C72      1.0000 0.17222  0.20760  0.56041  Biso   1.000  C
  H69      1.0000 0.20511  0.17698  0.50720  Biso   1.000  H
  C73      1.0000 0.33446  0.50172  0.81545  Biso   1.000  C
  C74      1.0000 0.41615  0.48890  0.79961  Biso   1.000  C
  H70      1.0000 0.48032  0.47218  0.78338  Biso   1.000  H
  C75      1.0000 0.15321  0.21532  0.75146  Biso   1.000  C
  C76      1.0000 0.06805  0.22190  0.73352  Biso   1.000  C
  H71      1.0000 0.14082  0.20971  0.54139  Biso   1.000  H
  N7       1.0000 0.31887  0.44220  0.84810  Biso   1.000  N
  H72      1.0000 0.34583  0.55691  0.83160  Biso   1.000  H
  H73      1.0000 0.30664  0.52061  0.79611  Biso   1.000  H
  H74      1.0000 0.42532  0.53802  0.82241  Biso   1.000  H
  C77      1.0000 0.15206  0.15382  0.78573  Biso   1.000  C
  H75      1.0000 0.18461  0.23319  0.74741  Biso   1.000  H
  C78      1.0000 0.06680  0.16167  0.76824  Biso   1.000  C
  H76      1.0000 0.03912  0.24378  0.71499  Biso   1.000  H
  C79      1.0000 0.28456  0.48750  0.87059  Biso   1.000  C
  C80      1.0000 0.35979  0.40972  0.88261  Biso   1.000  C
  C81      1.0000 0.19707  0.11618  0.81482  Biso   1.000  C
  C82      1.0000 0.10887  0.12747  0.79387  Biso   1.000  C
  H77      1.0000 0.03724  0.14400  0.77489  Biso   1.000  H
  C83      1.0000 0.25895  0.42899  0.89772  Biso   1.000  C
  H78      1.0000 0.29962  0.53292  0.88999  Biso   1.000  H
  H79      1.0000 0.26274  0.51518  0.84531  Biso   1.000  H
  C84      1.0000 0.35180  0.32327  0.90303  Biso   1.000  C
  H80      1.0000 0.38813  0.40188  0.86671  Biso   1.000  H
  H81      1.0000 0.36964  0.44851  0.90999  Biso   1.000  H
  N8       1.0000 0.22605  0.17781  0.84678  Biso   1.000  N
  H82      1.0000 0.21475  0.09640  0.79122  Biso   1.000  H
  H83      1.0000 0.18882  0.06399  0.83192  Biso   1.000  H
  H84      1.0000 0.10885  0.08230  0.81880  Biso   1.000  H
  C85      1.0000 0.23474  0.35792  0.87664  Biso   1.000  C
  C86      1.0000 0.26145  0.44169  0.94541  Biso   1.000  C
  C87      1.0000 0.32028  0.26502  0.87768  Biso   1.000  C
  C88      1.0000 0.37546  0.30190  0.94807  Biso   1.000  C
  C89      1.0000 0.26928  0.13270  0.87150  Biso   1.000  C
  C90      1.0000 0.19821  0.21258  0.87933  Biso   1.000  C
  C91      1.0000 0.21775  0.29539  0.90226  Biso   1.000  C
  H85      1.0000 0.23254  0.34848  0.84391  Biso   1.000  H
  C92      1.0000 0.24204  0.38248  0.97108  Biso   1.000  C
  H86      1.0000 0.27724  0.48992  0.96052  Biso   1.000  H
  C93      1.0000 0.30821  0.19000  0.89768  Biso   1.000  C
  H87      1.0000 0.30343  0.27721  0.84531  Biso   1.000  H
  C94      1.0000 0.36692  0.22432  0.96737  Biso   1.000  C
  H88      1.0000 0.39775  0.34082  0.96510  Biso   1.000  H
  H89      1.0000 0.28132  0.10253  0.84692  Biso   1.000  H
  H90      1.0000 0.25963  0.08900  0.89289  Biso   1.000  H
  H91      1.0000 0.19072  0.17220  0.90251  Biso   1.000  H
  H92      1.0000 0.16324  0.22681  0.85940  Biso   1.000  H
  C95      1.0000 0.22074  0.30879  0.94978  Biso   1.000  C
  H93      1.0000 0.24389  0.39371  0.00541  Biso   1.000  H
  C96      1.0000 0.33255  0.16939  0.94282  Biso   1.000  C
  H94      1.0000 0.38004  0.20697  0.99859  Biso   1.000  H
  H95      1.0000 0.20874  0.26471  0.96929  Biso   1.000  H
  H96      1.0000 0.32493  0.11733  0.95709  Biso   1.000  H
  C97      1.0000 0.28964  0.31000  0.46024  Biso   1.000  C
  C98      1.0000 0.32781  0.29240  0.43958  Biso   1.000  C
  C99      1.0000 0.24363  0.30930  0.43377  Biso   1.000  C
  H97      1.0000 0.29492  0.32302  0.49279  Biso   1.000  H
  C100     1.0000 0.32029  0.27721  0.39167  Biso   1.000  C
  H98      1.0000 0.35921  0.29029  0.45860  Biso   1.000  H
  C101     1.0000 0.23533  0.29348  0.38608  Biso   1.000  C
  H99      1.0000 0.21210  0.31689  0.44699  Biso   1.000  H
  C102     1.0000 0.36125  0.25131  0.36993  Biso   1.000  C
  C103     1.0000 0.27429  0.28231  0.36507  Biso   1.000  C
  C104     1.0000 0.18542  0.28429  0.35797  Biso   1.000  C
  N9       1.0000 0.35074  0.18138  0.33570  Biso   1.000  N
  H100     1.0000 0.39160  0.23351  0.39531  Biso   1.000  H
  H101     1.0000 0.37031  0.30158  0.35559  Biso   1.000  H
  H102     1.0000 0.26801  0.26962  0.33129  Biso   1.000  H
  N10      1.0000 0.17530  0.20148  0.33335  Biso   1.000  N
  H103     1.0000 0.17872  0.32602  0.33531  Biso   1.000  H
  H104     1.0000 0.16321  0.29240  0.37860  Biso   1.000  H
  C105     1.0000 0.38872  0.17813  0.30937  Biso   1.000  C
  C106     1.0000 0.34956  0.09678  0.35786  Biso   1.000  C
  C107     1.0000 0.17755  0.12862  0.36566  Biso   1.000  C
  C108     1.0000 0.12690  0.20639  0.30447  Biso   1.000  C
  C109     1.0000 0.38856  0.25010  0.27486  Biso   1.000  C
  H105     1.0000 0.42190  0.17481  0.33021  Biso   1.000  H
  H106     1.0000 0.38850  0.12339  0.29451  Biso   1.000  H
  C110     1.0000 0.31041  0.08517  0.38409  Biso   1.000  C
  H107     1.0000 0.34572  0.05340  0.33209  Biso   1.000  H
  H108     1.0000 0.37920  0.07981  0.37741  Biso   1.000  H
  C111     1.0000 0.22757  0.09997  0.38758  Biso   1.000  C
  H109     1.0000 0.15772  0.07949  0.34570  Biso   1.000  H
  H110     1.0000 0.16000  0.13908  0.39112  Biso   1.000  H
  C112     1.0000 0.11376  0.13500  0.26965  Biso   1.000  C
  H111     1.0000 0.12340  0.26407  0.28699  Biso   1.000  H
  H112     1.0000 0.10233  0.21092  0.32381  Biso   1.000  H
  C113     1.0000 0.34682  0.28468  0.24853  Biso   1.000  C
  C114     1.0000 0.43198  0.27810  0.26647  Biso   1.000  C
  C115     1.0000 0.32120  0.06272  0.43122  Biso   1.000  C
  C116     1.0000 0.26332  0.09959  0.36234  Biso   1.000  C
  C117     1.0000 0.23908  0.07579  0.43454  Biso   1.000  C
  C118     1.0000 0.14571  0.09972  0.24528  Biso   1.000  C
  C119     1.0000 0.06653  0.10699  0.25891  Biso   1.000  C
  C120     1.0000 0.34797  0.34618  0.21426  Biso   1.000  C
  H113     1.0000 0.31542  0.26681  0.25259  Biso   1.000  H
  C121     1.0000 0.43324  0.33827  0.23178  Biso   1.000  C
  H114     1.0000 0.46091  0.25622  0.28500  Biso   1.000  H
  C122     1.0000 0.28536  0.05640  0.45604  Biso   1.000  C
  H115     1.0000 0.35633  0.05353  0.44521  Biso   1.000  H
  H116     1.0000 0.25521  0.11803  0.32940  Biso   1.000  H
  H117     1.0000 0.21421  0.07841  0.45251  Biso   1.000  H
  C123     1.0000 0.13127  0.03751  0.21105  Biso   1.000  C
  H118     1.0000 0.18130  0.12007  0.25391  Biso   1.000  H
  C124     1.0000 0.05182  0.04600  0.22454  Biso   1.000  C
  H119     1.0000 0.04291  0.12843  0.27881  Biso   1.000  H
  C125     1.0000 0.30296  0.38382  0.18517  Biso   1.000  C
  C126     1.0000 0.39116  0.37253  0.20612  Biso   1.000  C
  H120     1.0000 0.46279  0.35600  0.22510  Biso   1.000  H
  H121     1.0000 0.29140  0.04351  0.49049  Biso   1.000  H
  C127     1.0000 0.16557  0.99828  0.18454  Biso   1.000  C
  C128     1.0000 0.08389  0.01110  0.20042  Biso   1.000  C
  H122     1.0000 0.01971  0.02782  0.21661  Biso   1.000  H
  N11      1.0000 0.27398  0.32219  0.15322  Biso   1.000  N
  H123     1.0000 0.28529  0.40360  0.20881  Biso   1.000  H
  H124     1.0000 0.31122  0.43601  0.16811  Biso   1.000  H
  H125     1.0000 0.39118  0.41770  0.18119  Biso   1.000  H
  N12      1.0000 0.18116  0.05780  0.15189  Biso   1.000  N
  H126     1.0000 0.15420  0.94309  0.16839  Biso   1.000  H
  H127     1.0000 0.19340  0.97939  0.20391  Biso   1.000  H
  H128     1.0000 0.07472  0.96198  0.17759  Biso   1.000  H
  C129     1.0000 0.23076  0.36730  0.12853  Biso   1.000  C
  C130     1.0000 0.30182  0.28742  0.12066  Biso   1.000  C
  C131     1.0000 0.14028  0.09028  0.11738  Biso   1.000  C
  C132     1.0000 0.21547  0.01250  0.12940  Biso   1.000  C
  C133     1.0000 0.19182  0.31000  0.10231  Biso   1.000  C
  H129     1.0000 0.21872  0.39747  0.15311  Biso   1.000  H
  H130     1.0000 0.24040  0.41100  0.10710  Biso   1.000  H
  C134     1.0000 0.28228  0.20461  0.09773  Biso   1.000  C
  H131     1.0000 0.30932  0.32780  0.09752  Biso   1.000  H
  H132     1.0000 0.33679  0.27319  0.14059  Biso   1.000  H
  C135     1.0000 0.14823  0.17673  0.09696  Biso   1.000  C
  H133     1.0000 0.11191  0.09812  0.13329  Biso   1.000  H
  H134     1.0000 0.13040  0.05149  0.09000  Biso   1.000  H
  C136     1.0000 0.24109  0.07101  0.10231  Biso   1.000  C
  H135     1.0000 0.20041  0.96708  0.11000  Biso   1.000  H
  H136     1.0000 0.23729  0.98482  0.15468  Biso   1.000  H
  C137     1.0000 0.17976  0.23498  0.12231  Biso   1.000  C
  C138     1.0000 0.16748  0.33061  0.05717  Biso   1.000  C
  C139     1.0000 0.26530  0.14208  0.12339  Biso   1.000  C
  C140     1.0000 0.27929  0.19121  0.05021  Biso   1.000  C
  C141     1.0000 0.12457  0.19810  0.05192  Biso   1.000  C
  C142     1.0000 0.23859  0.05831  0.05461  Biso   1.000  C
  H137     1.0000 0.19660  0.22279  0.15468  Biso   1.000  H
  C143     1.0000 0.13311  0.27568  0.03266  Biso   1.000  C
  H138     1.0000 0.17510  0.38267  0.04290  Biso   1.000  H
  H139     1.0000 0.26750  0.15152  0.15612  Biso   1.000  H
  C144     1.0000 0.25800  0.11752  0.02895  Biso   1.000  C
  H140     1.0000 0.29129  0.23529  0.03070  Biso   1.000  H
  H141     1.0000 0.10228  0.15918  0.03489  Biso   1.000  H
  H142     1.0000 0.22280  0.01008  0.03951  Biso   1.000  H
  H143     1.0000 0.11999  0.29297  0.00140  Biso   1.000  H
  H144     1.0000 0.25614  0.10629  0.99462  Biso   1.000  H
  C145     1.0000 0.30184  0.71258  0.62069  Biso   1.000  C
  N13      1.0000 0.27403  0.67781  0.65325  Biso   1.000  N
  C146     1.0000 0.28230  0.79539  0.59776  Biso   1.000  C
  H145     1.0000 0.30933  0.67220  0.59751  Biso   1.000  H
  H146     1.0000 0.33683  0.72681  0.64059  Biso   1.000  H
  C147     1.0000 0.23077  0.63270  0.62853  Biso   1.000  C
  C148     1.0000 0.30300  0.61618  0.68517  Biso   1.000  C
  C149     1.0000 0.26531  0.85792  0.62339  Biso   1.000  C
  C150     1.0000 0.27930  0.80879  0.55020  Biso   1.000  C
  C151     1.0000 0.19183  0.69000  0.60230  Biso   1.000  C
  H147     1.0000 0.21873  0.60253  0.65311  Biso   1.000  H
  H148     1.0000 0.24041  0.58900  0.60709  Biso   1.000  H
  C152     1.0000 0.34798  0.65382  0.71426  Biso   1.000  C
  H149     1.0000 0.28534  0.59640  0.70880  Biso   1.000  H
  H150     1.0000 0.31123  0.56399  0.66811  Biso   1.000  H
  C153     1.0000 0.24110  0.92899  0.60230  Biso   1.000  C
  H151     1.0000 0.26754  0.84848  0.65611  Biso   1.000  H
  C154     1.0000 0.25801  0.88248  0.52895  Biso   1.000  C
  H152     1.0000 0.29130  0.76471  0.53069  Biso   1.000  H
  C155     1.0000 0.16749  0.66939  0.55720  Biso   1.000  C
  C156     1.0000 0.17981  0.76502  0.62234  Biso   1.000  C
  C157     1.0000 0.34687  0.71532  0.74852  Biso   1.000  C
  C158     1.0000 0.39117  0.62747  0.70611  Biso   1.000  C
  C159     1.0000 0.21548  0.98750  0.62940  Biso   1.000  C
  C160     1.0000 0.23860  0.94169  0.55461  Biso   1.000  C
  H153     1.0000 0.25612  0.89371  0.49461  Biso   1.000  H
  C161     1.0000 0.13312  0.72432  0.53265  Biso   1.000  C
  H154     1.0000 0.17511  0.61726  0.54290  Biso   1.000  H
  C162     1.0000 0.14824  0.82327  0.59695  Biso   1.000  C
  H155     1.0000 0.19661  0.77721  0.65471  Biso   1.000  H
  C163     1.0000 0.38857  0.74990  0.77485  Biso   1.000  C
  H156     1.0000 0.31543  0.73319  0.75262  Biso   1.000  H
  C164     1.0000 0.43325  0.66167  0.73178  Biso   1.000  C
  H157     1.0000 0.39123  0.58230  0.68122  Biso   1.000  H
  N14      1.0000 0.18121  0.94220  0.65188  Biso   1.000  N
  H158     1.0000 0.20042  0.03292  0.60999  Biso   1.000  H
  H159     1.0000 0.23734  0.01518  0.65471  Biso   1.000  H
  H160     1.0000 0.22281  0.98992  0.53951  Biso   1.000  H
  C165     1.0000 0.12461  0.80190  0.55192  Biso   1.000  C
  H161     1.0000 0.12003  0.70697  0.50139  Biso   1.000  H
  C166     1.0000 0.14029  0.90972  0.61737  Biso   1.000  C
  C167     1.0000 0.38873  0.82187  0.80936  Biso   1.000  C
  C168     1.0000 0.43199  0.72190  0.76646  Biso   1.000  C
  H162     1.0000 0.46284  0.64400  0.72510  Biso   1.000  H
  C169     1.0000 0.16561  0.00172  0.68454  Biso   1.000  C
  H163     1.0000 0.10233  0.84082  0.53489  Biso   1.000  H
  H164     1.0000 0.11192  0.90188  0.63332  Biso   1.000  H
  H165     1.0000 0.13044  0.94851  0.58999  Biso   1.000  H
  N15      1.0000 0.35075  0.81862  0.83573  Biso   1.000  N
  H166     1.0000 0.42194  0.82519  0.83020  Biso   1.000  H
  H167     1.0000 0.38855  0.87661  0.79450  Biso   1.000  H
  H168     1.0000 0.46092  0.74378  0.78499  Biso   1.000  H
  C170     1.0000 0.13131  0.96249  0.71104  Biso   1.000  C
  H169     1.0000 0.15421  0.05691  0.66839  Biso   1.000  H
  H170     1.0000 0.19344  0.02061  0.70391  Biso   1.000  H
  C171     1.0000 0.36126  0.74869  0.86996  Biso   1.000  C
  C172     1.0000 0.34960  0.90322  0.85786  Biso   1.000  C
  C173     1.0000 0.14572  0.90028  0.74531  Biso   1.000  C
  C174     1.0000 0.08390  0.98890  0.70041  Biso   1.000  C
  C175     1.0000 0.32030  0.72279  0.89167  Biso   1.000  C
  H171     1.0000 0.39165  0.76649  0.89531  Biso   1.000  H
  H172     1.0000 0.37032  0.69842  0.85559  Biso   1.000  H
  C176     1.0000 0.31042  0.91476  0.88408  Biso   1.000  C
  H173     1.0000 0.34573  0.94660  0.83209  Biso   1.000  H
  H174     1.0000 0.37924  0.92019  0.87740  Biso   1.000  H
  C177     1.0000 0.11377  0.86500  0.76964  Biso   1.000  C
  H175     1.0000 0.18134  0.87986  0.75391  Biso   1.000  H
  C178     1.0000 0.05183  0.95400  0.72457  Biso   1.000  C
  H176     1.0000 0.07473  0.03802  0.67762  Biso   1.000  H
  C179     1.0000 0.32782  0.70760  0.93961  Biso   1.000  C
  C180     1.0000 0.27430  0.71769  0.86506  Biso   1.000  C
  C181     1.0000 0.32121  0.93728  0.93122  Biso   1.000  C
  C182     1.0000 0.26336  0.90041  0.86234  Biso   1.000  C
  C183     1.0000 0.12691  0.79361  0.80447  Biso   1.000  C
  C184     1.0000 0.06657  0.89301  0.75891  Biso   1.000  C
  H177     1.0000 0.01972  0.97218  0.71660  Biso   1.000  H
  C185     1.0000 0.28968  0.69000  0.96024  Biso   1.000  C
  H178     1.0000 0.35925  0.70971  0.95859  Biso   1.000  H
  C186     1.0000 0.23537  0.70652  0.88608  Biso   1.000  C
  H179     1.0000 0.26802  0.73038  0.83129  Biso   1.000  H
  C187     1.0000 0.28540  0.94360  0.95604  Biso   1.000  C
  H180     1.0000 0.35633  0.94647  0.94520  Biso   1.000  H
  C188     1.0000 0.22761  0.90003  0.88758  Biso   1.000  C
  H181     1.0000 0.25525  0.88197  0.82940  Biso   1.000  H
  N16      1.0000 0.17532  0.79852  0.83338  Biso   1.000  N
  H182     1.0000 0.12345  0.73587  0.78699  Biso   1.000  H
  H183     1.0000 0.10233  0.78908  0.82380  Biso   1.000  H
  H184     1.0000 0.04292  0.87157  0.77880  Biso   1.000  H
  C189     1.0000 0.24364  0.69070  0.93377  Biso   1.000  C
  H185     1.0000 0.29493  0.67698  0.99279  Biso   1.000  H
  C190     1.0000 0.18546  0.71571  0.85796  Biso   1.000  C
  C191     1.0000 0.23912  0.92421  0.93454  Biso   1.000  C
  H186     1.0000 0.29145  0.95649  0.99052  Biso   1.000  H
  C192     1.0000 0.17759  0.87138  0.86566  Biso   1.000  C
  H187     1.0000 0.21214  0.68311  0.94698  Biso   1.000  H
  H188     1.0000 0.17872  0.67398  0.83531  Biso   1.000  H
  H189     1.0000 0.16322  0.70760  0.87859  Biso   1.000  H
  H190     1.0000 0.21425  0.92159  0.95251  Biso   1.000  H
  H191     1.0000 0.15772  0.92051  0.84569  Biso   1.000  H
  H192     1.0000 0.16005  0.86092  0.89111  Biso   1.000  H
  C193     1.0000 0.45354  0.18783  0.56094  Biso   1.000  C
  C194     1.0000 0.41657  0.14068  0.53514  Biso   1.000  C
  C195     1.0000 0.46643  0.17717  0.60930  Biso   1.000  C
  H193     1.0000 0.46961  0.22968  0.54241  Biso   1.000  H
  C196     1.0000 0.39356  0.07981  0.55653  Biso   1.000  C
  H194     1.0000 0.40842  0.14751  0.50010  Biso   1.000  H
  C197     1.0000 0.44047  0.12109  0.63087  Biso   1.000  C
  C198     1.0000 0.51103  0.21698  0.63790  Biso   1.000  C
  C199     1.0000 0.40581  0.06839  0.60499  Biso   1.000  C
  H195     1.0000 0.36631  0.04281  0.53902  Biso   1.000  H
  H196     1.0000 0.45252  0.11012  0.66499  Biso   1.000  H
  N17      1.0000 0.54591  0.15114  0.65888  Biso   1.000  N
  H197     1.0000 0.52522  0.26081  0.61902  Biso   1.000  H
  H198     1.0000 0.50251  0.24978  0.66461  Biso   1.000  H
  C200     1.0000 0.38351  0.99898  0.62884  Biso   1.000  C
  C201     1.0000 0.58457  0.19038  0.69276  Biso   1.000  C
  C202     1.0000 0.56348  0.10068  0.62367  Biso   1.000  C
  H199     1.0000 0.35814  0.01869  0.63989  Biso   1.000  H
  N18      1.0000 0.41715  0.95840  0.66758  Biso   1.000  N
  H200     1.0000 0.36601  0.95827  0.60381  Biso   1.000  H
  C203     1.0000 0.61649  0.12473  0.72167  Biso   1.000  C
  H201     1.0000 0.56932  0.22911  0.71471  Biso   1.000  H
  H202     1.0000 0.60451  0.22847  0.67779  Biso   1.000  H
  C204     1.0000 0.53436  0.02131  0.60825  Biso   1.000  C
  H203     1.0000 0.59720  0.08377  0.63580  Biso   1.000  H
  H204     1.0000 0.56853  0.13270  0.59660  Biso   1.000  H
  C205     1.0000 0.39340  0.92752  0.70391  Biso   1.000  C
  C206     1.0000 0.44352  0.88701  0.65202  Biso   1.000  C
  C207     1.0000 0.66574  0.12849  0.72569  Biso   1.000  C
  C208     1.0000 0.59782  0.06042  0.74531  Biso   1.000  C
  C209     1.0000 0.50817  0.98277  0.63734  Biso   1.000  C
  C210     1.0000 0.53255  0.98488  0.56419  Biso   1.000  C
  C211     1.0000 0.37288  0.99898  0.72832  Biso   1.000  C
  H205     1.0000 0.41442  0.89760  0.72520  Biso   1.000  H
  H206     1.0000 0.36632  0.88861  0.68940  Biso   1.000  H
  C212     1.0000 0.47683  0.91598  0.62178  Biso   1.000  C
  H207     1.0000 0.42001  0.84318  0.63751  Biso   1.000  H
  H208     1.0000 0.46302  0.85887  0.68020  Biso   1.000  H
  C213     1.0000 0.69470  0.06839  0.75188  Biso   1.000  C
  H209     1.0000 0.67943  0.17341  0.71031  Biso   1.000  H
  H210     1.0000 0.56402  0.05793  0.74251  Biso   1.000  H
  C214     1.0000 0.62718  0.99898  0.77167  Biso   1.000  C
  H211     1.0000 0.51032  0.00057  0.66811  Biso   1.000  H
  C215     1.0000 0.50429  0.91419  0.54958  Biso   1.000  C
  H212     1.0000 0.54933  0.01710  0.54241  Biso   1.000  H
  C216     1.0000 0.32402  0.00351  0.72573  Biso   1.000  C
  C217     1.0000 0.40223  0.06042  0.75468  Biso   1.000  C
  C218     1.0000 0.47560  0.88069  0.57790  Biso   1.000  C
  C219     1.0000 0.67604  0.00351  0.77426  Biso   1.000  C
  H213     1.0000 0.72841  0.07292  0.75440  Biso   1.000  H
  C220     1.0000 0.60667  0.92752  0.79611  Biso   1.000  C
  H214     1.0000 0.50160  0.88771  0.51601  Biso   1.000  H
  C221     1.0000 0.30533  0.06839  0.74814  Biso   1.000  C
  H215     1.0000 0.30372  0.95572  0.70839  Biso   1.000  H
  C222     1.0000 0.38353  0.12473  0.77831  Biso   1.000  C
  H216     1.0000 0.43604  0.05793  0.75751  Biso   1.000  H
  H217     1.0000 0.45283  0.82997  0.56419  Biso   1.000  H
  H218     1.0000 0.69634  0.95572  0.79160  Biso   1.000  H
  N19      1.0000 0.58290  0.95840  0.83241  Biso   1.000  N
  H219     1.0000 0.58564  0.89760  0.77482  Biso   1.000  H
  H220     1.0000 0.63371  0.88861  0.81059  Biso   1.000  H
  C223     1.0000 0.33433  0.12849  0.77433  Biso   1.000  C
  H221     1.0000 0.27161  0.07292  0.74559  Biso   1.000  H
  C224     1.0000 0.41549  0.19038  0.80727  Biso   1.000  C
  C225     1.0000 0.55654  0.88701  0.84796  Biso   1.000  C
  C226     1.0000 0.61656  0.99898  0.87118  Biso   1.000  C
  H222     1.0000 0.32063  0.17341  0.78971  Biso   1.000  H
  N20      1.0000 0.45415  0.15114  0.84115  Biso   1.000  N
  H223     1.0000 0.43074  0.22911  0.78531  Biso   1.000  H
  H224     1.0000 0.39551  0.22847  0.82220  Biso   1.000  H
  C227     1.0000 0.52324  0.91598  0.87824  Biso   1.000  C
  H225     1.0000 0.58002  0.84318  0.86251  Biso   1.000  H
  H226     1.0000 0.53704  0.85887  0.81982  Biso   1.000  H
  C228     1.0000 0.59425  0.06839  0.89503  Biso   1.000  C
  H227     1.0000 0.64192  0.01869  0.86010  Biso   1.000  H
  H228     1.0000 0.63402  0.95827  0.89622  Biso   1.000  H
  C229     1.0000 0.43658  0.10068  0.87636  Biso   1.000  C
  C230     1.0000 0.48899  0.21698  0.86209  Biso   1.000  C
  C231     1.0000 0.49190  0.98277  0.86268  Biso   1.000  C
  C232     1.0000 0.52445  0.88069  0.92209  Biso   1.000  C
  C233     1.0000 0.55958  0.12109  0.86912  Biso   1.000  C
  C234     1.0000 0.60650  0.07981  0.94345  Biso   1.000  C
  H229     1.0000 0.40282  0.08377  0.86419  Biso   1.000  H
  H230     1.0000 0.43154  0.13270  0.90342  Biso   1.000  H
  C235     1.0000 0.46570  0.02131  0.89178  Biso   1.000  C
  H231     1.0000 0.47485  0.26081  0.88101  Biso   1.000  H
  H232     1.0000 0.49752  0.24978  0.83541  Biso   1.000  H
  C236     1.0000 0.53359  0.17717  0.89069  Biso   1.000  C
  H233     1.0000 0.48975  0.00057  0.83192  Biso   1.000  H
  C237     1.0000 0.49576  0.91419  0.95041  Biso   1.000  C
  H234     1.0000 0.54723  0.82997  0.93580  Biso   1.000  H
  H235     1.0000 0.54753  0.11012  0.83499  Biso   1.000  H
  C238     1.0000 0.58349  0.14068  0.96489  Biso   1.000  C
  H236     1.0000 0.63372  0.04281  0.96101  Biso   1.000  H
  C239     1.0000 0.46751  0.98488  0.93580  Biso   1.000  C
  C240     1.0000 0.54651  0.18783  0.93905  Biso   1.000  C
  H237     1.0000 0.49843  0.88771  0.98401  Biso   1.000  H
  H238     1.0000 0.59164  0.14751  0.99989  Biso   1.000  H
  H239     1.0000 0.45073  0.01710  0.95761  Biso   1.000  H
  H240     1.0000 0.53045  0.22968  0.95761  Biso   1.000  H
  C241     1.0000 0.10647  0.42019  0.44346  Biso   1.000  C
  C242     1.0000 0.09423  0.43161  0.39503  Biso   1.000  C
  C243     1.0000 0.08346  0.35932  0.46486  Biso   1.000  C
  H241     1.0000 0.13373  0.45719  0.46101  Biso   1.000  H
  C244     1.0000 0.08343  0.35932  0.46486  Biso   1.000  C
  H242     1.0000 0.13370  0.45719  0.46101  Biso   1.000  H
  C245     1.0000 0.11653  0.50102  0.37119  Biso   1.000  C
  C246     1.0000 0.05956  0.37891  0.36912  Biso   1.000  C
  C247     1.0000 0.04652  0.31217  0.43905  Biso   1.000  C
  C248     1.0000 0.04649  0.31217  0.43905  Biso   1.000  C
  H243     1.0000 0.09161  0.35249  0.49989  Biso   1.000  H
  N21      1.0000 0.08288  0.54160  0.33241  Biso   1.000  N
  H244     1.0000 0.14190  0.48131  0.36010  Biso   1.000  H
  H245     1.0000 0.13399  0.54173  0.39619  Biso   1.000  H
  H246     1.0000 0.04751  0.38988  0.33500  Biso   1.000  H
  C249     1.0000 0.03356  0.32283  0.39070  Biso   1.000  C
  H247     1.0000 0.03043  0.27032  0.45762  Biso   1.000  H
  C250     1.0000 0.10664  0.57248  0.29612  Biso   1.000  C
  C251     1.0000 0.05655  0.61299  0.34797  Biso   1.000  C
  C252     1.0000 0.05651  0.61299  0.34797  Biso   1.000  C
  C253     1.0000 0.98897  0.28302  0.36209  Biso   1.000  C
  C254     1.0000 0.12715  0.50102  0.27168  Biso   1.000  C
  H248     1.0000 0.08561  0.60240  0.27479  Biso   1.000  H
  H249     1.0000 0.13372  0.61139  0.31059  Biso   1.000  H
  H250     1.0000 0.13368  0.61139  0.31059  Biso   1.000  H
  C255     1.0000 0.02321  0.58402  0.37825  Biso   1.000  C
  H251     1.0000 0.03701  0.64113  0.31979  Biso   1.000  H
  H252     1.0000 0.08003  0.65682  0.36251  Biso   1.000  H
  H253     1.0000 0.07999  0.65682  0.36251  Biso   1.000  H
  N22      1.0000 0.95413  0.34886  0.34115  Biso   1.000  N
  H254     1.0000 0.97482  0.23919  0.38101  Biso   1.000  H
  H255     1.0000 0.99753  0.25022  0.33542  Biso   1.000  H
  H256     1.0000 0.99750  0.25022  0.33542  Biso   1.000  H
  C256     1.0000 0.17601  0.49649  0.27426  Biso   1.000  C
  C257     1.0000 0.09780  0.43958  0.24531  Biso   1.000  C
  C258     1.0000 0.02443  0.61931  0.42209  Biso   1.000  C
  C259     1.0000 0.99187  0.51723  0.36269  Biso   1.000  C
  C260     1.0000 0.93655  0.39932  0.37636  Biso   1.000  C
  C261     1.0000 0.91546  0.30962  0.30724  Biso   1.000  C
  C262     1.0000 0.19468  0.43161  0.25189  Biso   1.000  C
  H257     1.0000 0.19632  0.54428  0.29161  Biso   1.000  H
  C263     1.0000 0.11650  0.37527  0.22168  Biso   1.000  C
  C264     1.0000 0.11647  0.37527  0.22168  Biso   1.000  C
  H258     1.0000 0.06400  0.44207  0.24252  Biso   1.000  H
  H259     1.0000 0.04720  0.67003  0.43580  Biso   1.000  H
  C265     1.0000 0.99574  0.58581  0.45042  Biso   1.000  C
  C266     1.0000 0.96567  0.47869  0.39174  Biso   1.000  C
  H260     1.0000 0.98971  0.49943  0.33189  Biso   1.000  H
  H261     1.0000 0.93150  0.36730  0.40339  Biso   1.000  H
  H262     1.0000 0.90279  0.41617  0.36419  Biso   1.000  H
  C267     1.0000 0.88354  0.37527  0.27832  Biso   1.000  C
  H263     1.0000 0.93072  0.27089  0.28531  Biso   1.000  H
  C268     1.0000 0.88350  0.37527  0.27832  Biso   1.000  C
  H264     1.0000 0.89549  0.27147  0.32220  Biso   1.000  H
  C269     1.0000 0.16571  0.37151  0.22570  Biso   1.000  C
  H265     1.0000 0.22839  0.42708  0.25440  Biso   1.000  H
  C270     1.0000 0.08455  0.30962  0.19276  Biso   1.000  C
  C271     1.0000 0.96745  0.51512  0.43580  Biso   1.000  C
  H266     1.0000 0.99840  0.61229  0.48402  Biso   1.000  H
  C272     1.0000 0.90221  0.43958  0.25468  Biso   1.000  C
  C273     1.0000 0.83430  0.37151  0.27433  Biso   1.000  C
  H267     1.0000 0.17941  0.32659  0.21031  Biso   1.000  H
  N23      1.0000 0.04588  0.34886  0.15884  Biso   1.000  N
  H268     1.0000 0.06929  0.27089  0.21468  Biso   1.000  H
  H269     1.0000 0.10452  0.27147  0.17780  Biso   1.000  H
  H270     1.0000 0.10448  0.27147  0.17780  Biso   1.000  H
  H271     1.0000 0.95071  0.48290  0.45762  Biso   1.000  H
  C274     1.0000 0.87286  0.50102  0.22832  Biso   1.000  C
  H272     1.0000 0.93602  0.44207  0.25752  Biso   1.000  H
  C275     1.0000 0.80530  0.43161  0.24814  Biso   1.000  C
  H273     1.0000 0.82061  0.32659  0.28972  Biso   1.000  H
  C276     1.0000 0.01104  0.28302  0.13790  Biso   1.000  C
  C277     1.0000 0.06345  0.39932  0.12364  Biso   1.000  C
  C278     1.0000 0.01101  0.28302  0.13790  Biso   1.000  C
  C279     1.0000 0.89337  0.57248  0.20391  Biso   1.000  C
  C280     1.0000 0.82400  0.49649  0.22573  Biso   1.000  C
  H274     1.0000 0.77159  0.42708  0.24559  Biso   1.000  H
  C281     1.0000 0.03434  0.47869  0.10825  Biso   1.000  C
  H275     1.0000 0.06850  0.36730  0.09661  Biso   1.000  H
  H276     1.0000 0.09718  0.41617  0.13580  Biso   1.000  H
  H277     1.0000 0.02518  0.23919  0.11898  Biso   1.000  H
  C282     1.0000 0.96644  0.32283  0.10930  Biso   1.000  C
  C283     1.0000 0.96641  0.32283  0.10930  Biso   1.000  C
  H278     1.0000 0.00252  0.25022  0.16461  Biso   1.000  H
  H279     1.0000 0.00248  0.25022  0.16461  Biso   1.000  H
  N24      1.0000 0.91713  0.54160  0.16759  Biso   1.000  N
  H280     1.0000 0.91440  0.60240  0.22521  Biso   1.000  H
  H281     1.0000 0.86629  0.61139  0.18940  Biso   1.000  H
  H282     1.0000 0.80369  0.54428  0.20839  Biso   1.000  H
  C284     1.0000 0.00813  0.51723  0.13731  Biso   1.000  C
  C285     1.0000 0.03256  0.51512  0.06420  Biso   1.000  C
  C286     1.0000 0.03252  0.51512  0.06420  Biso   1.000  C
  C287     1.0000 0.94045  0.37891  0.13087  Biso   1.000  C
  C288     1.0000 0.95352  0.31217  0.06094  Biso   1.000  C
  C289     1.0000 0.94349  0.61299  0.15203  Biso   1.000  C
  C290     1.0000 0.88348  0.50102  0.12885  Biso   1.000  C
  H283     1.0000 0.01029  0.49943  0.16811  Biso   1.000  H
  C291     1.0000 0.97679  0.58402  0.12175  Biso   1.000  C
  C292     1.0000 0.00427  0.58581  0.04958  Biso   1.000  C
  H284     1.0000 0.04930  0.48290  0.04241  Biso   1.000  H
  C293     1.0000 0.90578  0.43161  0.10496  Biso   1.000  C
  H285     1.0000 0.95250  0.38988  0.16500  Biso   1.000  H
  C294     1.0000 0.91654  0.35932  0.03514  Biso   1.000  C
  H286     1.0000 0.96959  0.27032  0.04241  Biso   1.000  H
  H287     1.0000 0.96300  0.64113  0.18021  Biso   1.000  H
  H288     1.0000 0.91999  0.65682  0.13752  Biso   1.000  H
  H289     1.0000 0.85811  0.48131  0.13989  Biso   1.000  H
  H290     1.0000 0.86602  0.54173  0.10381  Biso   1.000  H
  H291     1.0000 0.86598  0.54173  0.10381  Biso   1.000  H
  C295     1.0000 0.97558  0.61931  0.07790  Biso   1.000  C
  H292     1.0000 0.00161  0.61229  0.01601  Biso   1.000  H
  H293     1.0000 0.00158  0.61229  0.01601  Biso   1.000  H
  C296     1.0000 0.89353  0.42019  0.05654  Biso   1.000  C
  H294     1.0000 0.90839  0.35249  0.00010  Biso   1.000  H
  H295     1.0000 0.95280  0.67003  0.06420  Biso   1.000  H
  H296     1.0000 0.86631  0.45719  0.03899  Biso   1.000  H
  H297     1.0000 0.86627  0.45719  0.03899  Biso   1.000  H
  C297     1.0000 0.55182  0.45400  0.72457  Biso   1.000  C
  C298     1.0000 0.58391  0.48890  0.70041  Biso   1.000  C
  C299     1.0000 0.56655  0.39301  0.75891  Biso   1.000  C
  H298     1.0000 0.51973  0.47218  0.71660  Biso   1.000  H
  C300     1.0000 0.63130  0.46249  0.71104  Biso   1.000  C
  H299     1.0000 0.57471  0.53802  0.67762  Biso   1.000  H
  C301     1.0000 0.61375  0.36500  0.76964  Biso   1.000  C
  H300     1.0000 0.54293  0.37157  0.77880  Biso   1.000  H
  C302     1.0000 0.66559  0.50172  0.68454  Biso   1.000  C
  C303     1.0000 0.64574  0.40028  0.74531  Biso   1.000  C
  C304     1.0000 0.62692  0.29361  0.80447  Biso   1.000  C
  N25      1.0000 0.68119  0.44220  0.65188  Biso   1.000  N
  H301     1.0000 0.65423  0.55691  0.66839  Biso   1.000  H
  H302     1.0000 0.69342  0.52061  0.70391  Biso   1.000  H
  H303     1.0000 0.68133  0.37993  0.75391  Biso   1.000  H
  N26      1.0000 0.67534  0.29852  0.83338  Biso   1.000  N
  H304     1.0000 0.62343  0.23587  0.78699  Biso   1.000  H
  H305     1.0000 0.60232  0.28908  0.82380  Biso   1.000  H
  C305     1.0000 0.64027  0.40972  0.61737  Biso   1.000  C
  C306     1.0000 0.71546  0.48750  0.62940  Biso   1.000  C
  C307     1.0000 0.68545  0.21571  0.85796  Biso   1.000  C
  C308     1.0000 0.67757  0.37138  0.86566  Biso   1.000  C
  C309     1.0000 0.64825  0.32327  0.59695  Biso   1.000  C
  H306     1.0000 0.61194  0.40188  0.63332  Biso   1.000  H
  H307     1.0000 0.63042  0.44851  0.58999  Biso   1.000  H
  C310     1.0000 0.74112  0.42899  0.60230  Biso   1.000  C
  H308     1.0000 0.70043  0.53292  0.60999  Biso   1.000  H
  H309     1.0000 0.73732  0.51518  0.65471  Biso   1.000  H
  C311     1.0000 0.73535  0.20652  0.88608  Biso   1.000  C
  H310     1.0000 0.67874  0.17398  0.83531  Biso   1.000  H
  H311     1.0000 0.66324  0.20760  0.87859  Biso   1.000  H
  C312     1.0000 0.72759  0.40003  0.88758  Biso   1.000  C
  H312     1.0000 0.65774  0.42051  0.84569  Biso   1.000  H
  H313     1.0000 0.66003  0.36092  0.89111  Biso   1.000  H
  C313     1.0000 0.62459  0.30190  0.55192  Biso   1.000  C
  C314     1.0000 0.67979  0.26502  0.62234  Biso   1.000  C
  C315     1.0000 0.76529  0.35792  0.62339  Biso   1.000  C
  C316     1.0000 0.73861  0.44169  0.55461  Biso   1.000  C
  C317     1.0000 0.77428  0.21769  0.86506  Biso   1.000  C
  C318     1.0000 0.74366  0.19070  0.93377  Biso   1.000  C
  C319     1.0000 0.76334  0.40041  0.86234  Biso   1.000  C
  C320     1.0000 0.73910  0.42421  0.93454  Biso   1.000  C
  C321     1.0000 0.63310  0.22432  0.53265  Biso   1.000  C
  H314     1.0000 0.60231  0.34082  0.53489  Biso   1.000  H
  C322     1.0000 0.69185  0.19000  0.60230  Biso   1.000  C
  H315     1.0000 0.69663  0.27721  0.65471  Biso   1.000  H
  C323     1.0000 0.78231  0.29539  0.59776  Biso   1.000  C
  H316     1.0000 0.76752  0.34848  0.65611  Biso   1.000  H
  C324     1.0000 0.75802  0.38248  0.52895  Biso   1.000  C
  H317     1.0000 0.72282  0.48992  0.53951  Biso   1.000  H
  C325     1.0000 0.82028  0.22279  0.89167  Biso   1.000  C
  H318     1.0000 0.76804  0.23038  0.83129  Biso   1.000  H
  C326     1.0000 0.78966  0.19000  0.96024  Biso   1.000  C
  H319     1.0000 0.71213  0.18311  0.94698  Biso   1.000  H
  C327     1.0000 0.81044  0.41483  0.88408  Biso   1.000  C
  H320     1.0000 0.75523  0.38197  0.82940  Biso   1.000  H
  C328     1.0000 0.78538  0.44360  0.95604  Biso   1.000  C
  H321     1.0000 0.71423  0.42159  0.95251  Biso   1.000  H
  C329     1.0000 0.66748  0.16939  0.55720  Biso   1.000  C
  H322     1.0000 0.62001  0.20697  0.50139  Biso   1.000  H
  C330     1.0000 0.73079  0.13270  0.62853  Biso   1.000  C
  C331     1.0000 0.80186  0.21258  0.62069  Biso   1.000  C
  C332     1.0000 0.77932  0.30879  0.55020  Biso   1.000  C
  H323     1.0000 0.75610  0.39371  0.49461  Biso   1.000  H
  C333     1.0000 0.86128  0.24869  0.86996  Biso   1.000  C
  C334     1.0000 0.82781  0.20760  0.93961  Biso   1.000  C
  H324     1.0000 0.79495  0.17698  0.99279  Biso   1.000  H
  C335     1.0000 0.84959  0.40322  0.85786  Biso   1.000  C
  C336     1.0000 0.82119  0.43728  0.93122  Biso   1.000  C
  H325     1.0000 0.79143  0.45649  0.99052  Biso   1.000  H
  H326     1.0000 0.67513  0.11733  0.54290  Biso   1.000  H
  N27      1.0000 0.77402  0.17781  0.65325  Biso   1.000  N
  H327     1.0000 0.71871  0.10253  0.65311  Biso   1.000  H
  H328     1.0000 0.74042  0.08900  0.60709  Biso   1.000  H
  H329     1.0000 0.80931  0.17220  0.59751  Biso   1.000  H
  H330     1.0000 0.83681  0.22681  0.64059  Biso   1.000  H
  H331     1.0000 0.79132  0.26471  0.53069  Biso   1.000  H
  N28      1.0000 0.85074  0.31862  0.83573  Biso   1.000  N
  H332     1.0000 0.89163  0.26649  0.89531  Biso   1.000  H
  H333     1.0000 0.87034  0.19842  0.85559  Biso   1.000  H
  H334     1.0000 0.85923  0.20971  0.95859  Biso   1.000  H
  H335     1.0000 0.84571  0.44660  0.83209  Biso   1.000  H
  H336     1.0000 0.87922  0.42019  0.87740  Biso   1.000  H
  H337     1.0000 0.85632  0.44647  0.94520  Biso   1.000  H
  C337     1.0000 0.80298  0.11618  0.68517  Biso   1.000  C
  C338     1.0000 0.88874  0.32187  0.80936  Biso   1.000  C
  C339     1.0000 0.84800  0.15382  0.71426  Biso   1.000  C
  H338     1.0000 0.78532  0.09640  0.70880  Biso   1.000  H
  H339     1.0000 0.81121  0.06399  0.66811  Biso   1.000  H
  C340     1.0000 0.88859  0.24990  0.77485  Biso   1.000  C
  H340     1.0000 0.92193  0.32519  0.83020  Biso   1.000  H
  H341     1.0000 0.88853  0.37661  0.79450  Biso   1.000  H
  C341     1.0000 0.84685  0.21532  0.74852  Biso   1.000  C
  C342     1.0000 0.89115  0.12747  0.70611  Biso   1.000  C
  C343     1.0000 0.93197  0.22190  0.76646  Biso   1.000  C
  H342     1.0000 0.81541  0.23319  0.75262  Biso   1.000  H
  C344     1.0000 0.93327  0.16167  0.73178  Biso   1.000  C
  H343     1.0000 0.89122  0.08230  0.68122  Biso   1.000  H
  H344     1.0000 0.96093  0.24378  0.78499  Biso   1.000  H
  H345     1.0000 0.96282  0.14400  0.72510  Biso   1.000  H
  C345     1.0000 0.48898  0.78302  0.36209  Biso   1.000  C
  N29      1.0000 0.45411  0.84886  0.34115  Biso   1.000  N
  H346     1.0000 0.47481  0.73919  0.38101  Biso   1.000  H
  H347     1.0000 0.49751  0.75022  0.33542  Biso   1.000  H
  C346     1.0000 0.53358  0.82276  0.39070  Biso   1.000  C
  C347     1.0000 0.41548  0.80962  0.30724  Biso   1.000  C
  C348     1.0000 0.43654  0.89932  0.37636  Biso   1.000  C
  C349     1.0000 0.55954  0.87891  0.36912  Biso   1.000  C
  C350     1.0000 0.54651  0.81217  0.43905  Biso   1.000  C
  C351     1.0000 0.38352  0.87527  0.27832  Biso   1.000  C
  H348     1.0000 0.43070  0.77089  0.28531  Biso   1.000  H
  H349     1.0000 0.39551  0.77147  0.32220  Biso   1.000  H
  H350     1.0000 0.40281  0.91617  0.36419  Biso   1.000  H
  H351     1.0000 0.43152  0.86730  0.40339  Biso   1.000  H
  C352     1.0000 0.46565  0.97869  0.39174  Biso   1.000  C
  C353     1.0000 0.59424  0.93161  0.39503  Biso   1.000  C
  H352     1.0000 0.54752  0.88988  0.33500  Biso   1.000  H
  C354     1.0000 0.58344  0.85932  0.46486  Biso   1.000  C
  H353     1.0000 0.53041  0.77032  0.45762  Biso   1.000  H
  C355     1.0000 0.40219  0.93958  0.25468  Biso   1.000  C
  C356     1.0000 0.33429  0.87151  0.27433  Biso   1.000  C
  C357     1.0000 0.49186  0.01716  0.36269  Biso   1.000  C
  C358     1.0000 0.46747  0.01512  0.43580  Biso   1.000  C
  C359     1.0000 0.60646  0.92019  0.44346  Biso   1.000  C
  C360     1.0000 0.61652  0.00102  0.37119  Biso   1.000  C
  H354     1.0000 0.59160  0.85249  0.49989  Biso   1.000  H
  H355     1.0000 0.43600  0.94207  0.25752  Biso   1.000  H
  C361     1.0000 0.37287  0.00102  0.22832  Biso   1.000  C
  C362     1.0000 0.30532  0.93161  0.24814  Biso   1.000  C
  H356     1.0000 0.32062  0.82659  0.28972  Biso   1.000  H
  H357     1.0000 0.48970  0.99936  0.33189  Biso   1.000  H
  C363     1.0000 0.52320  0.08402  0.37825  Biso   1.000  C
  H358     1.0000 0.45073  0.98290  0.45762  Biso   1.000  H
  C364     1.0000 0.49575  0.08581  0.45042  Biso   1.000  C
  H359     1.0000 0.63372  0.95719  0.46101  Biso   1.000  H
  N30      1.0000 0.58290  0.04160  0.33241  Biso   1.000  N
  H360     1.0000 0.64191  0.98131  0.36010  Biso   1.000  H
  H361     1.0000 0.63401  0.04173  0.39619  Biso   1.000  H
  C365     1.0000 0.32401  0.99649  0.22573  Biso   1.000  C
  C366     1.0000 0.39339  0.07248  0.20391  Biso   1.000  C
  H362     1.0000 0.27160  0.92708  0.24559  Biso   1.000  H
  C367     1.0000 0.55653  0.11299  0.34797  Biso   1.000  C
  C368     1.0000 0.52441  0.11931  0.42209  Biso   1.000  C
  H363     1.0000 0.49842  0.11229  0.48402  Biso   1.000  H
  C369     1.0000 0.60662  0.07248  0.29612  Biso   1.000  C
  H364     1.0000 0.30371  0.04428  0.20839  Biso   1.000  H
  N31      1.0000 0.41711  0.04160  0.16759  Biso   1.000  N
  H365     1.0000 0.41442  0.10240  0.22521  Biso   1.000  H
  H366     1.0000 0.36631  0.11139  0.18940  Biso   1.000  H
  H367     1.0000 0.58001  0.15682  0.36251  Biso   1.000  H
  H368     1.0000 0.53699  0.14106  0.31979  Biso   1.000  H
  H369     1.0000 0.54722  0.16996  0.43580  Biso   1.000  H
  C370     1.0000 0.62713  0.00102  0.27168  Biso   1.000  C
  H370     1.0000 0.58559  0.10240  0.27479  Biso   1.000  H
  H371     1.0000 0.63370  0.11139  0.31059  Biso   1.000  H
  C371     1.0000 0.38350  0.00102  0.12885  Biso   1.000  C
  C372     1.0000 0.44348  0.11299  0.15203  Biso   1.000  C
  C373     1.0000 0.67603  0.99649  0.27426  Biso   1.000  C
  C374     1.0000 0.59782  0.93958  0.24531  Biso   1.000  C
  C375     1.0000 0.40576  0.93161  0.10496  Biso   1.000  C
  H372     1.0000 0.35809  0.98131  0.13989  Biso   1.000  H
  H373     1.0000 0.36600  0.04173  0.10381  Biso   1.000  H
  C376     1.0000 0.47681  0.08402  0.12175  Biso   1.000  C
  H374     1.0000 0.42001  0.15682  0.13752  Biso   1.000  H
  H375     1.0000 0.46302  0.14106  0.18021  Biso   1.000  H
  C377     1.0000 0.69470  0.93161  0.25189  Biso   1.000  C
  H376     1.0000 0.69630  0.04428  0.29161  Biso   1.000  H
  C378     1.0000 0.61649  0.87527  0.22168  Biso   1.000  C
  H377     1.0000 0.56401  0.94207  0.24252  Biso   1.000  H
  C379     1.0000 0.44047  0.87891  0.13087  Biso   1.000  C
  C380     1.0000 0.39355  0.92019  0.05654  Biso   1.000  C
  C381     1.0000 0.50815  0.01716  0.13731  Biso   1.000  C
  C382     1.0000 0.47560  0.11931  0.07790  Biso   1.000  C
  C383     1.0000 0.66573  0.87151  0.22570  Biso   1.000  C
  H378     1.0000 0.72840  0.92708  0.25440  Biso   1.000  H
  C384     1.0000 0.58453  0.80962  0.19276  Biso   1.000  C
  C385     1.0000 0.46643  0.82276  0.10930  Biso   1.000  C
  H379     1.0000 0.45252  0.88988  0.16500  Biso   1.000  H
  C386     1.0000 0.41656  0.85932  0.03514  Biso   1.000  C
  H380     1.0000 0.36629  0.95719  0.03899  Biso   1.000  H
  C387     1.0000 0.53436  0.97869  0.10825  Biso   1.000  C
  H381     1.0000 0.51031  0.99936  0.16811  Biso   1.000  H
  C388     1.0000 0.50425  0.08581  0.04958  Biso   1.000  C
  H382     1.0000 0.45279  0.16996  0.06420  Biso   1.000  H
  H383     1.0000 0.67939  0.82659  0.21031  Biso   1.000  H
  N32      1.0000 0.54590  0.84886  0.15884  Biso   1.000  N
  H384     1.0000 0.56931  0.77089  0.21468  Biso   1.000  H
  H385     1.0000 0.60450  0.77147  0.17780  Biso   1.000  H
  C389     1.0000 0.45350  0.81217  0.06094  Biso   1.000  C
  C390     1.0000 0.51102  0.78302  0.13790  Biso   1.000  C
  H386     1.0000 0.40841  0.85249  0.00010  Biso   1.000  H
  C391     1.0000 0.56347  0.89932  0.12364  Biso   1.000  C
  C392     1.0000 0.53254  0.01512  0.06420  Biso   1.000  C
  H387     1.0000 0.50160  0.11229  0.01601  Biso   1.000  H
  H388     1.0000 0.46960  0.77032  0.04241  Biso   1.000  H
  H389     1.0000 0.52520  0.73919  0.11898  Biso   1.000  H
  H390     1.0000 0.50250  0.75022  0.16461  Biso   1.000  H
  H391     1.0000 0.59720  0.91617  0.13580  Biso   1.000  H
  H392     1.0000 0.56849  0.86730  0.09661  Biso   1.000  H
  H393     1.0000 0.54929  0.98290  0.04241  Biso   1.000  H
  C393     1.0000 0.19472  0.56839  0.75188  Biso   1.000  C
  C394     1.0000 0.16575  0.62849  0.72569  Biso   1.000  C
  C395     1.0000 0.16572  0.62849  0.72569  Biso   1.000  C
  H394     1.0000 0.22843  0.57292  0.75440  Biso   1.000  H
  C396     1.0000 0.17605  0.50351  0.77426  Biso   1.000  C
  C397     1.0000 0.17602  0.50351  0.77426  Biso   1.000  C
  C398     1.0000 0.11651  0.62467  0.72167  Biso   1.000  C
  H395     1.0000 0.17942  0.67341  0.71031  Biso   1.000  H
  C399     1.0000 0.12716  0.49898  0.77167  Biso   1.000  C
  H396     1.0000 0.19632  0.45572  0.79160  Biso   1.000  H
  C400     1.0000 0.08456  0.69038  0.69276  Biso   1.000  C
  C401     1.0000 0.09784  0.56042  0.74531  Biso   1.000  C
  C402     1.0000 0.09781  0.56042  0.74531  Biso   1.000  C
  C403     1.0000 0.10665  0.42752  0.79611  Biso   1.000  C
  N33      1.0000 0.04589  0.65114  0.65888  Biso   1.000  N
  H397     1.0000 0.06934  0.72911  0.71471  Biso   1.000  H
  H398     1.0000 0.10453  0.72847  0.67779  Biso   1.000  H
  H399     1.0000 0.06404  0.55787  0.74251  Biso   1.000  H
  H400     1.0000 0.08562  0.39760  0.77482  Biso   1.000  H
  H401     1.0000 0.13372  0.38861  0.81059  Biso   1.000  H
  N34      1.0000 0.08289  0.45840  0.83241  Biso   1.000  N
  C404     1.0000 0.06350  0.60068  0.62367  Biso   1.000  C
  C405     1.0000 0.01105  0.71698  0.63790  Biso   1.000  C
  C406     1.0000 0.05655  0.38701  0.84796  Biso   1.000  C
  C407     1.0000 0.11654  0.49898  0.87118  Biso   1.000  C
  C408     1.0000 0.03435  0.52131  0.60825  Biso   1.000  C
  H402     1.0000 0.09722  0.58377  0.63580  Biso   1.000  H
  H403     1.0000 0.06851  0.63270  0.59660  Biso   1.000  H
  H404     1.0000 0.02523  0.76081  0.61902  Biso   1.000  H
  H405     1.0000 0.00253  0.74978  0.66461  Biso   1.000  H
  C409     1.0000 0.96645  0.67717  0.60930  Biso   1.000  C
  C410     1.0000 0.02322  0.41598  0.87824  Biso   1.000  C
  H406     1.0000 0.08003  0.34318  0.86251  Biso   1.000  H
  H407     1.0000 0.03702  0.35887  0.81982  Biso   1.000  H
  H408     1.0000 0.14194  0.51869  0.86010  Biso   1.000  H
  H409     1.0000 0.13404  0.45827  0.89622  Biso   1.000  H
  C411     1.0000 0.09423  0.56839  0.89503  Biso   1.000  C
  C412     1.0000 0.03256  0.48488  0.56419  Biso   1.000  C
  C413     1.0000 0.00815  0.48277  0.63734  Biso   1.000  C
  C414     1.0000 0.95353  0.68783  0.56094  Biso   1.000  C
  C415     1.0000 0.94046  0.62109  0.63087  Biso   1.000  C
  C416     1.0000 0.02444  0.38069  0.92209  Biso   1.000  C
  C417     1.0000 0.99188  0.48277  0.86268  Biso   1.000  C
  C418     1.0000 0.05956  0.62109  0.86912  Biso   1.000  C
  C419     1.0000 0.10648  0.57981  0.94345  Biso   1.000  C
  C420     1.0000 0.00428  0.41419  0.54958  Biso   1.000  C
  H410     1.0000 0.04931  0.51710  0.54241  Biso   1.000  H
  C421     1.0000 0.97684  0.41598  0.62178  Biso   1.000  C
  H411     1.0000 0.01034  0.50057  0.66811  Biso   1.000  H
  C422     1.0000 0.90580  0.56839  0.60499  Biso   1.000  C
  H412     1.0000 0.95251  0.61012  0.66499  Biso   1.000  H
  C423     1.0000 0.91659  0.64068  0.53514  Biso   1.000  C
  H413     1.0000 0.96963  0.72968  0.54241  Biso   1.000  H
  C424     1.0000 0.99574  0.41419  0.95041  Biso   1.000  C
  H414     1.0000 0.04721  0.32997  0.93580  Biso   1.000  H
  C425     1.0000 0.96568  0.52131  0.89178  Biso   1.000  C
  H415     1.0000 0.98973  0.50057  0.83192  Biso   1.000  H
  C426     1.0000 0.03360  0.67717  0.89069  Biso   1.000  C
  H416     1.0000 0.04755  0.61012  0.83499  Biso   1.000  H
  H417     1.0000 0.04751  0.61012  0.83499  Biso   1.000  H
  C427     1.0000 0.08348  0.64068  0.96489  Biso   1.000  C
  H418     1.0000 0.13374  0.54281  0.96101  Biso   1.000  H
  H419     1.0000 0.00162  0.38771  0.51601  Biso   1.000  H
  C428     1.0000 0.97562  0.38069  0.57790  Biso   1.000  C
  C429     1.0000 0.97559  0.38069  0.57790  Biso   1.000  C
  C430     1.0000 0.94350  0.38701  0.65202  Biso   1.000  C
  C431     1.0000 0.88349  0.49898  0.62884  Biso   1.000  C
  C432     1.0000 0.89357  0.57981  0.55653  Biso   1.000  C
  C433     1.0000 0.89354  0.57981  0.55653  Biso   1.000  C
  H420     1.0000 0.90844  0.64751  0.50010  Biso   1.000  H
  H421     1.0000 0.90840  0.64751  0.50010  Biso   1.000  H
  C434     1.0000 0.96749  0.48488  0.93580  Biso   1.000  C
  H422     1.0000 0.99844  0.38771  0.98401  Biso   1.000  H
  C435     1.0000 0.93656  0.60068  0.87636  Biso   1.000  C
  C436     1.0000 0.98901  0.71698  0.86209  Biso   1.000  C
  C437     1.0000 0.04653  0.68783  0.93905  Biso   1.000  C
  H423     1.0000 0.09162  0.64751  0.99989  Biso   1.000  H
  H424     1.0000 0.95281  0.32997  0.56419  Biso   1.000  H
  N35      1.0000 0.91713  0.45840  0.66758  Biso   1.000  N
  H425     1.0000 0.92003  0.34318  0.63751  Biso   1.000  H
  H426     1.0000 0.96301  0.35887  0.68020  Biso   1.000  H
  H427     1.0000 0.85812  0.51869  0.63989  Biso   1.000  H
  H428     1.0000 0.86602  0.45827  0.60381  Biso   1.000  H
  H429     1.0000 0.86632  0.54281  0.53902  Biso   1.000  H
  H430     1.0000 0.95075  0.51710  0.95761  Biso   1.000  H
  H431     1.0000 0.95072  0.51710  0.95761  Biso   1.000  H
  N36      1.0000 0.95414  0.65114  0.84115  Biso   1.000  N
  H432     1.0000 0.90284  0.58377  0.86419  Biso   1.000  H
  H433     1.0000 0.93155  0.63270  0.90342  Biso   1.000  H
  H434     1.0000 0.93152  0.63270  0.90342  Biso   1.000  H
  H435     1.0000 0.97483  0.76081  0.88101  Biso   1.000  H
  H436     1.0000 0.99754  0.74978  0.83541  Biso   1.000  H
  H437     1.0000 0.03044  0.72968  0.95761  Biso   1.000  H
  C438     1.0000 0.89342  0.42752  0.70391  Biso   1.000  C
  C439     1.0000 0.91551  0.69038  0.80727  Biso   1.000  C
  C440     1.0000 0.91547  0.69038  0.80727  Biso   1.000  C
  C441     1.0000 0.87290  0.49898  0.72832  Biso   1.000  C
  H438     1.0000 0.91444  0.39760  0.72520  Biso   1.000  H
  H439     1.0000 0.86633  0.38861  0.68940  Biso   1.000  H
  C442     1.0000 0.87286  0.49898  0.72832  Biso   1.000  C
  H440     1.0000 0.91441  0.39760  0.72520  Biso   1.000  H
  C443     1.0000 0.88354  0.62467  0.77831  Biso   1.000  C
  H441     1.0000 0.93073  0.72911  0.78531  Biso   1.000  H
  H442     1.0000 0.89553  0.72847  0.82220  Biso   1.000  H
  C444     1.0000 0.82404  0.50351  0.72573  Biso   1.000  C
  C445     1.0000 0.90222  0.56042  0.75468  Biso   1.000  C
  C446     1.0000 0.82400  0.50351  0.72573  Biso   1.000  C
  C447     1.0000 0.83431  0.62849  0.77433  Biso   1.000  C
  C448     1.0000 0.80534  0.56839  0.74814  Biso   1.000  C
  H443     1.0000 0.80373  0.45572  0.70839  Biso   1.000  H
  H444     1.0000 0.93603  0.55787  0.75751  Biso   1.000  H
  H445     1.0000 0.82061  0.67341  0.78971  Biso   1.000  H
  H446     1.0000 0.77163  0.57292  0.74559  Biso   1.000  H
  C449     1.0000 0.56807  0.72190  0.73352  Biso   1.000  C
  C450     1.0000 0.61149  0.74990  0.72517  Biso   1.000  C
  C451     1.0000 0.56681  0.66167  0.76824  Biso   1.000  C
  H447     1.0000 0.53911  0.74378  0.71499  Biso   1.000  H
  C452     1.0000 0.61134  0.82187  0.69066  Biso   1.000  C
  C453     1.0000 0.65319  0.71532  0.75146  Biso   1.000  C
  C454     1.0000 0.60889  0.62747  0.79387  Biso   1.000  C
  H448     1.0000 0.53722  0.64400  0.77489  Biso   1.000  H
  N37      1.0000 0.64931  0.81862  0.66429  Biso   1.000  N
  H449     1.0000 0.57811  0.82519  0.66978  Biso   1.000  H
  H450     1.0000 0.61152  0.87661  0.70552  Biso   1.000  H
  C455     1.0000 0.65208  0.65382  0.78573  Biso   1.000  C
  H451     1.0000 0.68463  0.73319  0.74741  Biso   1.000  H
  H452     1.0000 0.60883  0.58230  0.81880  Biso   1.000  H
  C456     1.0000 0.63876  0.74869  0.63006  Biso   1.000  C
  C457     1.0000 0.65046  0.90322  0.64216  Biso   1.000  C
  C458     1.0000 0.69706  0.61618  0.81482  Biso   1.000  C
  C459     1.0000 0.67976  0.72279  0.60832  Biso   1.000  C
  H453     1.0000 0.60842  0.76649  0.60471  Biso   1.000  H
  H454     1.0000 0.62973  0.69842  0.64440  Biso   1.000  H
  C460     1.0000 0.68964  0.91476  0.61594  Biso   1.000  C
  H455     1.0000 0.65433  0.94660  0.66790  Biso   1.000  H
  H456     1.0000 0.62082  0.92019  0.62262  Biso   1.000  H
  N38      1.0000 0.72603  0.67781  0.84678  Biso   1.000  N
  H457     1.0000 0.71473  0.59640  0.79122  Biso   1.000  H
  H458     1.0000 0.68884  0.56399  0.83192  Biso   1.000  H
  C461     1.0000 0.67224  0.70760  0.56041  Biso   1.000  C
  C462     1.0000 0.72576  0.71769  0.63492  Biso   1.000  C
  C463     1.0000 0.67886  0.93728  0.56881  Biso   1.000  C
  C464     1.0000 0.73670  0.90041  0.63765  Biso   1.000  C
  C465     1.0000 0.76926  0.63270  0.87150  Biso   1.000  C
  C466     1.0000 0.69822  0.71258  0.87933  Biso   1.000  C
  C467     1.0000 0.71038  0.69000  0.53979  Biso   1.000  C
  H459     1.0000 0.64081  0.70971  0.54139  Biso   1.000  H
  C468     1.0000 0.76469  0.70652  0.61391  Biso   1.000  C
  H460     1.0000 0.73204  0.73038  0.66870  Biso   1.000  H
  C469     1.0000 0.71466  0.94360  0.54395  Biso   1.000  C
  H461     1.0000 0.64372  0.94647  0.55479  Biso   1.000  H
  C470     1.0000 0.77246  0.90003  0.61244  Biso   1.000  C
  H462     1.0000 0.74481  0.88197  0.67059  Biso   1.000  H
  C471     1.0000 0.80819  0.69000  0.89768  Biso   1.000  C
  H463     1.0000 0.78134  0.60253  0.84692  Biso   1.000  H
  H464     1.0000 0.75961  0.58900  0.89289  Biso   1.000  H
  C472     1.0000 0.71777  0.79539  0.90226  Biso   1.000  C
  H465     1.0000 0.69074  0.67220  0.90251  Biso   1.000  H
  H466     1.0000 0.66323  0.72681  0.85940  Biso   1.000  H
  C473     1.0000 0.75638  0.69070  0.56622  Biso   1.000  C
  H467     1.0000 0.70513  0.67698  0.50720  Biso   1.000  H
  C474     1.0000 0.81459  0.71571  0.64202  Biso   1.000  C
  C475     1.0000 0.76095  0.92421  0.56548  Biso   1.000  C
  H468     1.0000 0.70862  0.95649  0.50951  Biso   1.000  H
  C476     1.0000 0.82247  0.87138  0.63437  Biso   1.000  C
  C477     1.0000 0.82026  0.76502  0.87768  Biso   1.000  C
  C478     1.0000 0.83257  0.66939  0.94282  Biso   1.000  C
  C479     1.0000 0.73475  0.85792  0.87664  Biso   1.000  C
  C480     1.0000 0.72076  0.80879  0.94978  Biso   1.000  C
  H469     1.0000 0.78791  0.68311  0.55300  Biso   1.000  H
  N39      1.0000 0.82474  0.79852  0.66664  Biso   1.000  N
  H470     1.0000 0.82131  0.67398  0.66471  Biso   1.000  H
  H471     1.0000 0.83680  0.70760  0.62139  Biso   1.000  H
  H472     1.0000 0.78582  0.92159  0.54751  Biso   1.000  H
  H473     1.0000 0.84233  0.92051  0.65429  Biso   1.000  H
  H474     1.0000 0.84002  0.86092  0.60891  Biso   1.000  H
  C481     1.0000 0.85178  0.82327  0.90303  Biso   1.000  C
  H475     1.0000 0.80342  0.77721  0.84531  Biso   1.000  H
  C482     1.0000 0.86694  0.72432  0.96737  Biso   1.000  C
  H476     1.0000 0.82491  0.61726  0.95709  Biso   1.000  H
  C483     1.0000 0.75893  0.92899  0.89772  Biso   1.000  C
  H477     1.0000 0.73252  0.84848  0.84391  Biso   1.000  H
  C484     1.0000 0.74202  0.88248  0.97108  Biso   1.000  C
  H478     1.0000 0.70872  0.76471  0.96929  Biso   1.000  H
  C485     1.0000 0.87312  0.79361  0.69552  Biso   1.000  C
  C486     1.0000 0.85977  0.90972  0.88261  Biso   1.000  C
  C487     1.0000 0.87545  0.80190  0.94807  Biso   1.000  C
  H479     1.0000 0.88003  0.70697  0.99859  Biso   1.000  H
  C488     1.0000 0.78458  0.98750  0.87059  Biso   1.000  C
  C489     1.0000 0.76147  0.94169  0.94541  Biso   1.000  C
  H480     1.0000 0.74391  0.89371  0.00541  Biso   1.000  H
  C490     1.0000 0.88630  0.86500  0.73038  Biso   1.000  C
  H481     1.0000 0.87661  0.73587  0.71300  Biso   1.000  H
  H482     1.0000 0.89773  0.78908  0.67622  Biso   1.000  H
  N40      1.0000 0.81885  0.94220  0.84810  Biso   1.000  N
  H483     1.0000 0.88814  0.90188  0.86671  Biso   1.000  H
  H484     1.0000 0.86962  0.94851  0.90999  Biso   1.000  H
  H485     1.0000 0.89773  0.84082  0.96510  Biso   1.000  H
  H486     1.0000 0.79964  0.03292  0.88999  Biso   1.000  H
  H487     1.0000 0.76272  0.01518  0.84531  Biso   1.000  H
  H488     1.0000 0.77722  0.98992  0.96052  Biso   1.000  H
  C491     1.0000 0.85431  0.90028  0.75471  Biso   1.000  C
  C492     1.0000 0.93349  0.89301  0.74108  Biso   1.000  C
  C493     1.0000 0.83445  0.00172  0.81545  Biso   1.000  C
  C494     1.0000 0.86874  0.96249  0.78894  Biso   1.000  C
  H489     1.0000 0.81872  0.87986  0.74611  Biso   1.000  H
  C495     1.0000 0.94823  0.95400  0.77545  Biso   1.000  C
  H490     1.0000 0.95711  0.87157  0.72122  Biso   1.000  H
  H491     1.0000 0.84581  0.05691  0.83160  Biso   1.000  H
  H492     1.0000 0.80662  0.02061  0.79611  Biso   1.000  H
  C496     1.0000 0.91613  0.98890  0.79961  Biso   1.000  C
  H493     1.0000 0.98030  0.97218  0.78338  Biso   1.000  H
  H494     1.0000 0.92533  0.03802  0.82241  Biso   1.000  H
  C497     1.0000 0.56676  0.33827  0.26821  Biso   1.000  C
  C498     1.0000 0.56803  0.27810  0.23353  Biso   1.000  C
  C499     1.0000 0.60885  0.37253  0.29388  Biso   1.000  C
  H495     1.0000 0.53721  0.35600  0.27489  Biso   1.000  H
  C500     1.0000 0.61145  0.25010  0.22517  Biso   1.000  C
  H496     1.0000 0.53910  0.25622  0.21500  Biso   1.000  H
  C501     1.0000 0.65203  0.34618  0.28573  Biso   1.000  C
  H497     1.0000 0.60882  0.41770  0.31881  Biso   1.000  H
  C502     1.0000 0.61130  0.17813  0.19066  Biso   1.000  C
  C503     1.0000 0.65318  0.28468  0.25147  Biso   1.000  C
  C504     1.0000 0.69705  0.38382  0.31482  Biso   1.000  C
  N41      1.0000 0.64927  0.18138  0.16430  Biso   1.000  N
  H498     1.0000 0.57810  0.17481  0.16979  Biso   1.000  H
  H499     1.0000 0.61150  0.12339  0.20549  Biso   1.000  H
  H500     1.0000 0.68459  0.26681  0.24741  Biso   1.000  H
  N42      1.0000 0.72602  0.32219  0.34678  Biso   1.000  N
  H501     1.0000 0.71471  0.40360  0.29119  Biso   1.000  H
  H502     1.0000 0.68879  0.43601  0.33189  Biso   1.000  H
  C505     1.0000 0.63876  0.25131  0.13007  Biso   1.000  C
  C506     1.0000 0.65045  0.09678  0.14217  Biso   1.000  C
  C507     1.0000 0.76924  0.36730  0.37147  Biso   1.000  C
  C508     1.0000 0.69818  0.28742  0.37933  Biso   1.000  C
  C509     1.0000 0.67971  0.27721  0.10832  Biso   1.000  C
  H503     1.0000 0.60840  0.23351  0.10468  Biso   1.000  H
  H504     1.0000 0.62969  0.30158  0.14440  Biso   1.000  H
  C510     1.0000 0.68960  0.08517  0.11594  Biso   1.000  C
  H505     1.0000 0.65429  0.05340  0.16790  Biso   1.000  H
  H506     1.0000 0.62081  0.07981  0.12259  Biso   1.000  H
  C511     1.0000 0.80818  0.31000  0.39769  Biso   1.000  C
  H507     1.0000 0.78129  0.39747  0.34689  Biso   1.000  H
  H508     1.0000 0.75961  0.41100  0.39290  Biso   1.000  H
  C512     1.0000 0.71773  0.20461  0.40227  Biso   1.000  C
  H509     1.0000 0.69070  0.32780  0.40251  Biso   1.000  H
  H510     1.0000 0.66322  0.27319  0.35940  Biso   1.000  H
  C513     1.0000 0.67220  0.29240  0.06042  Biso   1.000  C
  C514     1.0000 0.72572  0.28231  0.13493  Biso   1.000  C
  C515     1.0000 0.67881  0.06272  0.06878  Biso   1.000  C
  C516     1.0000 0.73669  0.09959  0.13766  Biso   1.000  C
  C517     1.0000 0.82025  0.23498  0.37769  Biso   1.000  C
  C518     1.0000 0.83253  0.33061  0.44283  Biso   1.000  C
  C519     1.0000 0.73471  0.14208  0.37661  Biso   1.000  C
  C520     1.0000 0.72071  0.19121  0.44979  Biso   1.000  C
  C521     1.0000 0.71037  0.31000  0.03975  Biso   1.000  C
  H511     1.0000 0.64080  0.29029  0.04140  Biso   1.000  H
  C522     1.0000 0.76468  0.29348  0.11392  Biso   1.000  C
  H512     1.0000 0.73200  0.26962  0.16870  Biso   1.000  H
  C523     1.0000 0.71465  0.05640  0.04395  Biso   1.000  C
  H513     1.0000 0.64368  0.05353  0.05479  Biso   1.000  H
  C524     1.0000 0.77245  0.09997  0.11245  Biso   1.000  C
  H514     1.0000 0.74480  0.11803  0.17059  Biso   1.000  H
  C525     1.0000 0.85178  0.17673  0.40304  Biso   1.000  C
  H515     1.0000 0.80341  0.22279  0.34531  Biso   1.000  H
  C526     1.0000 0.86690  0.27568  0.46737  Biso   1.000  C
  H516     1.0000 0.82491  0.38267  0.45709  Biso   1.000  H
  C527     1.0000 0.75892  0.07101  0.39772  Biso   1.000  C
  H517     1.0000 0.73252  0.15152  0.34391  Biso   1.000  H
  C528     1.0000 0.74201  0.11752  0.47104  Biso   1.000  C
  H518     1.0000 0.70871  0.23529  0.46930  Biso   1.000  H
  C529     1.0000 0.75638  0.30930  0.06622  Biso   1.000  C
  H519     1.0000 0.70509  0.32302  0.00720  Biso   1.000  H
  C530     1.0000 0.81458  0.28429  0.14203  Biso   1.000  C
  C531     1.0000 0.76093  0.07579  0.06545  Biso   1.000  C
  H520     1.0000 0.70861  0.04351  0.00951  Biso   1.000  H
  C532     1.0000 0.82246  0.12862  0.13433  Biso   1.000  C
  C533     1.0000 0.87544  0.19810  0.44807  Biso   1.000  C
  C534     1.0000 0.85976  0.09028  0.38262  Biso   1.000  C
  H521     1.0000 0.88002  0.29297  0.49860  Biso   1.000  H
  C535     1.0000 0.78454  0.01250  0.37059  Biso   1.000  C
  C536     1.0000 0.76143  0.05831  0.44542  Biso   1.000  C
  H522     1.0000 0.74390  0.10629  0.50542  Biso   1.000  H
  H523     1.0000 0.78791  0.31689  0.05301  Biso   1.000  H
  N43      1.0000 0.82470  0.20148  0.16664  Biso   1.000  N
  H524     1.0000 0.82129  0.32602  0.16468  Biso   1.000  H
  H525     1.0000 0.83679  0.29240  0.12140  Biso   1.000  H
  H526     1.0000 0.78581  0.07841  0.04752  Biso   1.000  H
  H527     1.0000 0.84229  0.07949  0.15430  Biso   1.000  H
  H528     1.0000 0.84001  0.13908  0.10892  Biso   1.000  H
  H529     1.0000 0.89772  0.15918  0.46510  Biso   1.000  H
  N44      1.0000 0.81884  0.05780  0.34811  Biso   1.000  N
  H530     1.0000 0.88810  0.09812  0.36671  Biso   1.000  H
  H531     1.0000 0.86961  0.05149  0.41000  Biso   1.000  H
  H532     1.0000 0.79960  0.96708  0.39000  Biso   1.000  H
  H533     1.0000 0.76272  0.98482  0.34531  Biso   1.000  H
  H534     1.0000 0.77721  0.01008  0.46049  Biso   1.000  H
  C537     1.0000 0.87311  0.20639  0.19552  Biso   1.000  C
  C538     1.0000 0.83444  0.99828  0.31545  Biso   1.000  C
  C539     1.0000 0.88628  0.13500  0.23035  Biso   1.000  C
  H535     1.0000 0.87660  0.26407  0.21301  Biso   1.000  H
  H536     1.0000 0.89768  0.21092  0.17619  Biso   1.000  H
  C540     1.0000 0.86873  0.03751  0.28895  Biso   1.000  C
  H537     1.0000 0.84580  0.94309  0.33161  Biso   1.000  H
  H538     1.0000 0.80662  0.97939  0.29612  Biso   1.000  H
  C541     1.0000 0.85430  0.09972  0.25472  Biso   1.000  C
  C542     1.0000 0.93348  0.10699  0.24108  Biso   1.000  C
  C543     1.0000 0.91612  0.01110  0.29961  Biso   1.000  C
  H539     1.0000 0.81871  0.12007  0.24612  Biso   1.000  H
  C544     1.0000 0.94819  0.04600  0.27545  Biso   1.000  C
  H540     1.0000 0.95710  0.12843  0.22119  Biso   1.000  H
  H541     1.0000 0.92529  0.96198  0.32241  Biso   1.000  H
  H542     1.0000 0.98030  0.02782  0.28339  Biso   1.000  H
  C545     1.0000 0.56654  0.60699  0.25891  Biso   1.000  C
  C546     1.0000 0.55180  0.54600  0.22454  Biso   1.000  C
  C547     1.0000 0.61374  0.63500  0.26965  Biso   1.000  C
  H543     1.0000 0.54289  0.62837  0.27881  Biso   1.000  H
  C548     1.0000 0.58387  0.51110  0.20042  Biso   1.000  C
  H544     1.0000 0.51969  0.52782  0.21661  Biso   1.000  H
  C549     1.0000 0.62688  0.70639  0.30447  Biso   1.000  C
  C550     1.0000 0.64569  0.59972  0.24528  Biso   1.000  C
  C551     1.0000 0.63129  0.53751  0.21105  Biso   1.000  C
  H545     1.0000 0.57470  0.46198  0.17759  Biso   1.000  H
  N45      1.0000 0.67529  0.70148  0.33335  Biso   1.000  N
  H546     1.0000 0.62339  0.76407  0.28699  Biso   1.000  H
  H547     1.0000 0.60231  0.71092  0.32381  Biso   1.000  H
  H548     1.0000 0.68132  0.62007  0.25391  Biso   1.000  H
  C552     1.0000 0.66559  0.49828  0.18454  Biso   1.000  C
  C553     1.0000 0.68544  0.78429  0.35797  Biso   1.000  C
  C554     1.0000 0.67757  0.62862  0.36566  Biso   1.000  C
  N46      1.0000 0.68118  0.55780  0.15189  Biso   1.000  N
  H549     1.0000 0.65419  0.44309  0.16839  Biso   1.000  H
  H550     1.0000 0.69342  0.47939  0.20391  Biso   1.000  H
  C555     1.0000 0.73535  0.79348  0.38608  Biso   1.000  C
  H551     1.0000 0.67870  0.82602  0.33531  Biso   1.000  H
  H552     1.0000 0.66320  0.79240  0.37860  Biso   1.000  H
  C556     1.0000 0.72758  0.59997  0.38758  Biso   1.000  C
  H553     1.0000 0.65770  0.57949  0.34570  Biso   1.000  H
  H554     1.0000 0.66002  0.63908  0.39112  Biso   1.000  H
  C557     1.0000 0.71545  0.51250  0.12940  Biso   1.000  C
  C558     1.0000 0.64026  0.59028  0.11738  Biso   1.000  C
  C559     1.0000 0.74361  0.80930  0.43377  Biso   1.000  C
  C560     1.0000 0.77427  0.78231  0.36507  Biso   1.000  C
  C561     1.0000 0.73909  0.57579  0.43454  Biso   1.000  C
  C562     1.0000 0.76333  0.59959  0.36234  Biso   1.000  C
  C563     1.0000 0.74108  0.57101  0.10231  Biso   1.000  C
  H555     1.0000 0.70039  0.46708  0.11000  Biso   1.000  H
  H556     1.0000 0.73731  0.48482  0.15468  Biso   1.000  H
  C564     1.0000 0.64821  0.67673  0.09696  Biso   1.000  C
  H557     1.0000 0.61189  0.59812  0.13329  Biso   1.000  H
  H558     1.0000 0.63041  0.55149  0.09000  Biso   1.000  H
  C565     1.0000 0.78965  0.81000  0.46024  Biso   1.000  C
  H559     1.0000 0.71212  0.81689  0.44699  Biso   1.000  H
  C566     1.0000 0.82028  0.77721  0.39167  Biso   1.000  C
  H560     1.0000 0.76799  0.76962  0.33129  Biso   1.000  H
  C567     1.0000 0.78537  0.55640  0.45604  Biso   1.000  C
  H561     1.0000 0.71422  0.57841  0.45251  Biso   1.000  H
  C568     1.0000 0.81039  0.58517  0.38409  Biso   1.000  C
  H562     1.0000 0.75522  0.61797  0.32940  Biso   1.000  H
  C569     1.0000 0.76528  0.64208  0.12339  Biso   1.000  C
  C570     1.0000 0.73857  0.55831  0.05461  Biso   1.000  C
  C571     1.0000 0.67977  0.73498  0.12231  Biso   1.000  C
  C572     1.0000 0.62459  0.69810  0.05192  Biso   1.000  C
  C573     1.0000 0.82779  0.79240  0.43958  Biso   1.000  C
  H563     1.0000 0.79490  0.82302  0.49279  Biso   1.000  H
  C574     1.0000 0.86123  0.75131  0.36993  Biso   1.000  C
  C575     1.0000 0.82118  0.56272  0.43122  Biso   1.000  C
  H564     1.0000 0.79142  0.54351  0.49049  Biso   1.000  H
  C576     1.0000 0.84958  0.59678  0.35786  Biso   1.000  C
  C577     1.0000 0.78226  0.70461  0.09773  Biso   1.000  C
  H565     1.0000 0.76752  0.65152  0.15612  Biso   1.000  H
  C578     1.0000 0.75798  0.61752  0.02895  Biso   1.000  C
  H566     1.0000 0.72278  0.51008  0.03951  Biso   1.000  H
  C579     1.0000 0.69181  0.81000  0.10231  Biso   1.000  C
  H567     1.0000 0.69658  0.72279  0.15468  Biso   1.000  H
  C580     1.0000 0.63310  0.77568  0.03266  Biso   1.000  C
  H568     1.0000 0.60230  0.65918  0.03489  Biso   1.000  H
  H569     1.0000 0.85923  0.79029  0.45860  Biso   1.000  H
  N47      1.0000 0.85072  0.68138  0.33570  Biso   1.000  N
  H570     1.0000 0.89162  0.73351  0.39531  Biso   1.000  H
  H571     1.0000 0.87030  0.80158  0.35559  Biso   1.000  H
  H572     1.0000 0.85631  0.55353  0.44521  Biso   1.000  H
  H573     1.0000 0.84570  0.55340  0.33209  Biso   1.000  H
  H574     1.0000 0.87922  0.57981  0.37741  Biso   1.000  H
  C581     1.0000 0.80181  0.78742  0.12066  Biso   1.000  C
  C582     1.0000 0.77928  0.69121  0.05021  Biso   1.000  C
  H575     1.0000 0.75613  0.60629  0.99462  Biso   1.000  H
  C583     1.0000 0.73075  0.86730  0.12853  Biso   1.000  C
  C584     1.0000 0.66746  0.83061  0.05717  Biso   1.000  C
  H576     1.0000 0.62001  0.79297  0.00140  Biso   1.000  H
  C585     1.0000 0.88870  0.67807  0.30937  Biso   1.000  C
  N48      1.0000 0.77400  0.82213  0.15322  Biso   1.000  N
  H577     1.0000 0.80930  0.82780  0.09752  Biso   1.000  H
  H578     1.0000 0.83681  0.77319  0.14059  Biso   1.000  H
  H579     1.0000 0.79128  0.73529  0.03070  Biso   1.000  H
  H580     1.0000 0.71870  0.89747  0.15311  Biso   1.000  H
  H581     1.0000 0.74038  0.91100  0.10710  Biso   1.000  H
  H582     1.0000 0.67508  0.88267  0.04290  Biso   1.000  H
  C586     1.0000 0.88855  0.75010  0.27486  Biso   1.000  C
  H583     1.0000 0.92192  0.67481  0.33021  Biso   1.000  H
  H584     1.0000 0.88852  0.62339  0.29451  Biso   1.000  H
  C587     1.0000 0.80294  0.88382  0.18517  Biso   1.000  C
  C588     1.0000 0.84684  0.78468  0.24853  Biso   1.000  C
  C589     1.0000 0.93196  0.77810  0.26647  Biso   1.000  C
  C590     1.0000 0.84796  0.84618  0.21426  Biso   1.000  C
  H585     1.0000 0.78531  0.90360  0.20881  Biso   1.000  H
  H586     1.0000 0.81120  0.93601  0.16811  Biso   1.000  H
  H587     1.0000 0.81540  0.76681  0.25259  Biso   1.000  H
  C591     1.0000 0.93323  0.83827  0.23178  Biso   1.000  C
  H588     1.0000 0.96089  0.75622  0.28500  Biso   1.000  H
  C592     1.0000 0.89114  0.87246  0.20612  Biso   1.000  C
  H589     1.0000 0.96281  0.85600  0.22510  Biso   1.000  H
  H590     1.0000 0.89120  0.91770  0.18119  Biso   1.000  H
