data_image0
_cell_length_a       21.656
_cell_length_b       19.828
_cell_length_c       22.267
_cell_angle_alpha    90
_cell_angle_beta     106.05
_cell_angle_gamma    90

_symmetry_space_group_name_H-M    "P 1"
_symmetry_int_tables_number       1

loop_
  _symmetry_equiv_pos_as_xyz
  'x, y, z'

loop_
  _atom_site_label
  _atom_site_occupancy
  _atom_site_fract_x
  _atom_site_fract_y
  _atom_site_fract_z
  _atom_site_thermal_displace_type
  _atom_site_B_iso_or_equiv
  _atom_site_type_symbol
  C1       1.0000 0.39300  0.50061  0.46390  Biso   1.000  C
  C2       1.0000 0.39673  0.56788  0.43511  Biso   1.000  C
  C3       1.0000 0.40362  0.50479  0.53129  Biso   1.000  C
  H1       1.0000 0.35021  0.48058  0.44479  Biso   1.000  H
  H2       1.0000 0.42560  0.47029  0.45479  Biso   1.000  H
  N1       1.0000 0.38231  0.56032  0.36861  Biso   1.000  N
  C4       1.0000 0.34881  0.61680  0.45058  Biso   1.000  C
  H3       1.0000 0.44111  0.58629  0.45152  Biso   1.000  H
  C5       1.0000 0.35744  0.55543  0.55012  Biso   1.000  C
  H4       1.0000 0.44852  0.51891  0.55101  Biso   1.000  H
  H5       1.0000 0.39761  0.45960  0.54769  Biso   1.000  H
  C6       1.0000 0.42460  0.57731  0.34081  Biso   1.000  C
  N2       1.0000 0.35439  0.68272  0.42179  Biso   1.000  N
  H6       1.0000 0.30431  0.59900  0.43259  Biso   1.000  H
  C7       1.0000 0.36093  0.62381  0.51871  Biso   1.000  C
  H7       1.0000 0.31290  0.53793  0.53671  Biso   1.000  H
  H8       1.0000 0.36982  0.56102  0.59610  Biso   1.000  H
  C8       1.0000 0.41620  0.56940  0.27389  Biso   1.000  C
  H9       1.0000 0.46379  0.59633  0.36530  Biso   1.000  H
  C9       1.0000 0.30520  0.70612  0.38600  Biso   1.000  C
  H10      1.0000 0.32859  0.65473  0.52759  Biso   1.000  H
  H11      1.0000 0.40393  0.64379  0.53661  Biso   1.000  H
  C10      1.0000 0.35959  0.54529  0.23281  Biso   1.000  C
  C11      1.0000 0.47010  0.57918  0.24940  Biso   1.000  C
  C12      1.0000 0.30272  0.77249  0.35389  Biso   1.000  C
  H12      1.0000 0.26671  0.68060  0.37861  Biso   1.000  H
  C13      1.0000 0.35541  0.53298  0.17052  Biso   1.000  C
  H13      1.0000 0.32322  0.53712  0.24781  Biso   1.000  H
  C14      1.0000 0.46620  0.56899  0.18632  Biso   1.000  C
  H14      1.0000 0.50990  0.59320  0.27702  Biso   1.000  H
  C15      1.0000 0.35541  0.81531  0.36689  Biso   1.000  C
  C16      1.0000 0.24430  0.79579  0.31539  Biso   1.000  C
  C17      1.0000 0.29901  0.50429  0.12772  Biso   1.000  C
  C18      1.0000 0.40870  0.54539  0.14762  Biso   1.000  C
  C19      1.0000 0.52282  0.58160  0.16230  Biso   1.000  C
  H15      1.0000 0.39412  0.80169  0.39651  Biso   1.000  H
  C20      1.0000 0.35270  0.87810  0.33740  Biso   1.000  C
  C21      1.0000 0.24091  0.85702  0.28590  Biso   1.000  C
  H16      1.0000 0.20673  0.76911  0.30959  Biso   1.000  H
  N3       1.0000 0.29291  0.47932  0.07510  Biso   1.000  N
  H17      1.0000 0.26128  0.50429  0.14169  Biso   1.000  H
  H18      1.0000 0.40521  0.53742  0.10482  Biso   1.000  H
  N4       1.0000 0.57541  0.60339  0.19622  Biso   1.000  N
  H19      1.0000 0.51910  0.57283  0.11949  Biso   1.000  H
  C22      1.0000 0.29522  0.89833  0.29730  Biso   1.000  C
  C23      1.0000 0.40892  0.92062  0.35291  Biso   1.000  C
  C24      1.0000 0.17672  0.88012  0.24529  Biso   1.000  C
  C25      1.0000 0.23251  0.44921  0.04080  Biso   1.000  C
  C26      1.0000 0.62741  0.61529  0.16491  Biso   1.000  C
  H20      1.0000 0.29242  0.94079  0.27721  Biso   1.000  H
  N5       1.0000 0.41029  0.98169  0.33759  Biso   1.000  N
  H21      1.0000 0.44812  0.90090  0.37661  Biso   1.000  H
  N6       1.0000 0.12591  0.85021  0.24132  Biso   1.000  N
  H22      1.0000 0.17529  0.92001  0.22141  Biso   1.000  H
  C27      1.0000 0.24901  0.37619  0.02168  Biso   1.000  C
  H23      1.0000 0.23978  0.40281  0.02790  Biso   1.000  H
  H24      1.0000 0.20291  0.44689  0.06762  Biso   1.000  H
  C28      1.0000 0.20409  0.49102  0.98519  Biso   1.000  C
  C29      1.0000 0.65139  0.68550  0.17632  Biso   1.000  C
  C30      1.0000 0.67932  0.56572  0.19692  Biso   1.000  C
  H25      1.0000 0.61041  0.60752  0.11940  Biso   1.000  H
  H26      1.0000 0.66309  0.58332  0.18141  Biso   1.000  H
  C31      1.0000 0.46970  0.01861  0.35861  Biso   1.000  C
  C32      1.0000 0.06490  0.87840  0.20020  Biso   1.000  C
  H27      1.0000 0.26692  0.34930  0.06000  Biso   1.000  H
  H28      1.0000 0.28239  0.37961  0.99911  Biso   1.000  H
  C33      1.0000 0.18968  0.33962  0.97981  Biso   1.000  C
  N7       1.0000 0.18541  0.55669  0.00182  Biso   1.000  N
  H29      1.0000 0.23571  0.49642  0.96079  Biso   1.000  H
  H30      1.0000 0.16591  0.46772  0.95841  Biso   1.000  H
  C34      1.0000 0.14740  0.45380  0.94528  Biso   1.000  C
  N8       1.0000 0.59772  0.73078  0.14412  Biso   1.000  N
  C35      1.0000 0.70359  0.69230  0.14309  Biso   1.000  C
  H31      1.0000 0.66489  0.69513  0.22169  Biso   1.000  H
  H32      1.0000 0.68881  0.69220  0.15949  Biso   1.000  H
  C36      1.0000 0.73441  0.57202  0.16641  Biso   1.000  C
  H33      1.0000 0.66202  0.51922  0.19211  Biso   1.000  H
  H34      1.0000 0.69489  0.57610  0.24211  Biso   1.000  H
  C37      1.0000 0.49163  0.04332  0.30371  Biso   1.000  C
  H35      1.0000 0.50322  0.98699  0.38329  Biso   1.000  H
  C38      1.0000 0.46184  0.07621  0.40212  Biso   1.000  C
  C39      1.0000 0.04000  0.82510  0.15029  Biso   1.000  C
  H36      1.0000 0.07313  0.92142  0.18122  Biso   1.000  H
  C40      1.0000 0.01994  0.89041  0.24052  Biso   1.000  C
  H37      1.0000 0.03350  0.88662  0.22440  Biso   1.000  H
  H38      1.0000 0.15781  0.33180  0.00350  Biso   1.000  H
  H39      1.0000 0.20280  0.29519  0.96701  Biso   1.000  H
  C41      1.0000 0.16150  0.37951  0.92551  Biso   1.000  C
  C42      1.0000 0.21042  0.60732  0.98682  Biso   1.000  C
  H40      1.0000 0.12920  0.48038  0.90691  Biso   1.000  H
  H41      1.0000 0.11408  0.45113  0.96808  Biso   1.000  H
  C43      1.0000 0.58020  0.77148  0.17931  Biso   1.000  C
  H42      1.0000 0.71968  0.73921  0.14608  Biso   1.000  H
  H43      1.0000 0.68629  0.68050  0.09832  Biso   1.000  H
  C44      1.0000 0.76020  0.64202  0.17622  Biso   1.000  C
  H44      1.0000 0.76878  0.53929  0.18529  Biso   1.000  H
  H45      1.0000 0.71848  0.56229  0.12108  Biso   1.000  H
  N9       1.0000 0.50279  0.98689  0.26679  Biso   1.000  N
  H46      1.0000 0.45641  0.07152  0.27679  Biso   1.000  H
  C45      1.0000 0.55219  0.08770  0.32539  Biso   1.000  C
  C46      1.0000 0.52343  0.12069  0.42352  Biso   1.000  C
  H47      1.0000 0.45194  0.05679  0.43941  Biso   1.000  H
  H48      1.0000 0.42501  0.10480  0.38011  Biso   1.000  H
  N10      1.0000 0.08281  0.82101  0.11019  Biso   1.000  N
  H49      1.0000 0.03799  0.78092  0.17019  Biso   1.000  H
  C47      1.0000 0.97380  0.84502  0.10991  Biso   1.000  C
  H50      1.0000 0.99610  0.83710  0.12501  Biso   1.000  H
  H51      1.0000 0.03750  0.92611  0.27160  Biso   1.000  H
  H52      1.0000 0.01539  0.84860  0.26319  Biso   1.000  H
  C48      1.0000 0.95441  0.91189  0.19861  Biso   1.000  C
  H53      1.0000 0.12090  0.35828  0.90112  Biso   1.000  H
  H54      1.0000 0.19109  0.38148  0.89869  Biso   1.000  H
  C49      1.0000 0.19511  0.67732  0.00182  Biso   1.000  C
  H55      1.0000 0.24130  0.60122  0.96420  Biso   1.000  H
  C50      1.0000 0.52999  0.82409  0.15519  Biso   1.000  C
  H56      1.0000 0.59962  0.76871  0.22309  Biso   1.000  H
  H57      1.0000 0.79671  0.64712  0.15781  Biso   1.000  H
  H58      1.0000 0.77572  0.65201  0.22141  Biso   1.000  H
  C51      1.0000 0.46862  0.98149  0.20879  Biso   1.000  C
  H59      1.0000 0.58890  0.05951  0.34829  Biso   1.000  H
  H60      1.0000 0.56274  0.10702  0.28842  Biso   1.000  H
  C52      1.0000 0.54229  0.14323  0.36661  Biso   1.000  C
  H61      1.0000 0.51480  0.16053  0.44680  Biso   1.000  H
  H62      1.0000 0.55883  0.09451  0.45142  Biso   1.000  H
  C53      1.0000 0.10220  0.76402  0.09832  Biso   1.000  C
  C54      1.0000 0.92728  0.85652  0.15108  Biso   1.000  C
  H63      1.0000 0.95660  0.80901  0.07912  Biso   1.000  H
  H64      1.0000 0.97702  0.88693  0.08678  Biso   1.000  H
  H65      1.0000 0.95891  0.95421  0.17660  Biso   1.000  H
  H66      1.0000 0.92462  0.92052  0.22440  Biso   1.000  H
  C55      1.0000 0.15730  0.68923  0.04281  Biso   1.000  C
  C56      1.0000 0.21960  0.73391  0.97720  Biso   1.000  C
  C57      1.0000 0.49112  0.82101  0.09271  Biso   1.000  C
  C58      1.0000 0.52201  0.87139  0.19342  Biso   1.000  C
  C59      1.0000 0.47589  0.92753  0.16711  Biso   1.000  C
  H67      1.0000 0.43702  0.01503  0.19281  Biso   1.000  H
  H68      1.0000 0.50850  0.17359  0.34179  Biso   1.000  H
  H69      1.0000 0.58253  0.16971  0.38030  Biso   1.000  H
  C60      1.0000 0.14273  0.75232  0.05781  Biso   1.000  C
  H70      1.0000 0.08901  0.72579  0.11739  Biso   1.000  H
  H71      1.0000 0.88442  0.86973  0.12458  Biso   1.000  H
  H72      1.0000 0.92268  0.81420  0.17309  Biso   1.000  H
  H73      1.0000 0.14140  0.65181  0.06061  Biso   1.000  H
  C61      1.0000 0.20471  0.79892  0.99271  Biso   1.000  C
  H74      1.0000 0.24608  0.72761  0.95000  Biso   1.000  H
  C62      1.0000 0.44781  0.87240  0.06771  Biso   1.000  C
  H75      1.0000 0.49471  0.78339  0.06748  Biso   1.000  H
  H76      1.0000 0.54461  0.87018  0.23651  Biso   1.000  H
  C63      1.0000 0.44140  0.92349  0.10608  Biso   1.000  C
  C64      1.0000 0.16752  0.80830  0.03360  Biso   1.000  C
  C65      1.0000 0.22782  0.85520  0.96420  Biso   1.000  C
  C66      1.0000 0.41272  0.87099  0.00192  Biso   1.000  C
  H77      1.0000 0.41141  0.95829  0.08958  Biso   1.000  H
  H78      1.0000 0.15879  0.85263  0.04528  Biso   1.000  H
  N11      1.0000 0.25801  0.84991  0.92229  Biso   1.000  N
  H79      1.0000 0.22011  0.89933  0.97720  Biso   1.000  H
  N12      1.0000 0.37992  0.92031  0.97360  Biso   1.000  N
  H80      1.0000 0.41441  0.83110  0.97878  Biso   1.000  H
  C67      1.0000 0.27628  0.90861  0.89299  Biso   1.000  C
  C68      1.0000 0.35020  0.91260  0.90612  Biso   1.000  C
  H81      1.0000 0.26050  0.94972  0.90911  Biso   1.000  H
  C69      1.0000 0.24990  0.90821  0.82878  Biso   1.000  C
  H82      1.0000 0.25618  0.90660  0.84728  Biso   1.000  H
  C70      1.0000 0.37110  0.96969  0.87551  Biso   1.000  C
  H83      1.0000 0.36640  0.87109  0.89098  Biso   1.000  H
  H84      1.0000 0.36178  0.95153  0.88350  Biso   1.000  H
  H85      1.0000 0.20252  0.90892  0.82032  Biso   1.000  H
  H86      1.0000 0.26149  0.86499  0.81252  Biso   1.000  H
  C71      1.0000 0.26867  0.96389  0.79279  Biso   1.000  C
  C72      1.0000 0.34369  0.96081  0.80410  Biso   1.000  C
  H87      1.0000 0.41869  0.97150  0.88682  Biso   1.000  H
  H88      1.0000 0.35532  0.01241  0.88901  Biso   1.000  H
  H89      1.0000 0.24669  0.95880  0.74779  Biso   1.000  H
  H90      1.0000 0.25618  0.00792  0.80700  Biso   1.000  H
  H91      1.0000 0.35681  0.91689  0.79032  Biso   1.000  H
  H92      1.0000 0.35852  0.99743  0.78121  Biso   1.000  H
  C73      1.0000 0.60701  0.50061  0.53610  Biso   1.000  C
  C74      1.0000 0.59640  0.50479  0.46871  Biso   1.000  C
  H93      1.0000 0.64980  0.48058  0.55521  Biso   1.000  H
  H94      1.0000 0.57441  0.47029  0.54521  Biso   1.000  H
  C75      1.0000 0.60332  0.56788  0.56488  Biso   1.000  C
  C76      1.0000 0.64263  0.55543  0.44993  Biso   1.000  C
  H95      1.0000 0.55149  0.51891  0.44899  Biso   1.000  H
  H96      1.0000 0.60240  0.45960  0.45231  Biso   1.000  H
  C77      1.0000 0.65120  0.61680  0.54942  Biso   1.000  C
  N13      1.0000 0.61770  0.56032  0.63138  Biso   1.000  N
  H97      1.0000 0.55890  0.58629  0.54848  Biso   1.000  H
  C78      1.0000 0.63913  0.62381  0.48128  Biso   1.000  C
  H98      1.0000 0.68711  0.53793  0.46329  Biso   1.000  H
  H99      1.0000 0.63020  0.56102  0.40390  Biso   1.000  H
  N14      1.0000 0.64562  0.68272  0.57820  Biso   1.000  N
  H100     1.0000 0.69570  0.59900  0.56741  Biso   1.000  H
  C79      1.0000 0.57541  0.57731  0.65919  Biso   1.000  C
  H101     1.0000 0.67142  0.65473  0.47240  Biso   1.000  H
  H102     1.0000 0.59613  0.64379  0.46339  Biso   1.000  H
  C80      1.0000 0.69482  0.70612  0.61400  Biso   1.000  C
  C81      1.0000 0.58382  0.56940  0.72611  Biso   1.000  C
  H103     1.0000 0.53622  0.59633  0.63470  Biso   1.000  H
  C82      1.0000 0.69734  0.77249  0.64610  Biso   1.000  C
  H104     1.0000 0.73330  0.68060  0.62138  Biso   1.000  H
  C83      1.0000 0.52992  0.57918  0.75059  Biso   1.000  C
  C84      1.0000 0.64042  0.54529  0.76718  Biso   1.000  C
  C85      1.0000 0.64461  0.81531  0.63311  Biso   1.000  C
  C86      1.0000 0.75571  0.79579  0.68461  Biso   1.000  C
  C87      1.0000 0.53383  0.56899  0.81373  Biso   1.000  C
  H105     1.0000 0.49012  0.59320  0.72302  Biso   1.000  H
  C88      1.0000 0.64462  0.53298  0.82952  Biso   1.000  C
  H106     1.0000 0.67685  0.53712  0.75223  Biso   1.000  H
  H107     1.0000 0.60589  0.80169  0.60348  Biso   1.000  H
  C89      1.0000 0.64731  0.87810  0.66260  Biso   1.000  C
  C90      1.0000 0.75911  0.85702  0.71410  Biso   1.000  C
  H108     1.0000 0.79333  0.76911  0.69040  Biso   1.000  H
  C91      1.0000 0.59133  0.54539  0.85242  Biso   1.000  C
  C92      1.0000 0.47724  0.58160  0.83770  Biso   1.000  C
  C93      1.0000 0.70102  0.50429  0.87233  Biso   1.000  C
  C94      1.0000 0.70484  0.89833  0.70269  Biso   1.000  C
  C95      1.0000 0.59114  0.92062  0.64708  Biso   1.000  C
  C96      1.0000 0.82334  0.88012  0.75471  Biso   1.000  C
  H109     1.0000 0.59481  0.53742  0.89523  Biso   1.000  H
  N15      1.0000 0.42462  0.60339  0.80382  Biso   1.000  N
  H110     1.0000 0.48091  0.57283  0.88051  Biso   1.000  H
  N16      1.0000 0.70715  0.47932  0.92490  Biso   1.000  N
  H111     1.0000 0.73873  0.50429  0.85831  Biso   1.000  H
  H112     1.0000 0.70764  0.94079  0.72279  Biso   1.000  H
  N17      1.0000 0.58972  0.98169  0.66241  Biso   1.000  N
  H113     1.0000 0.55194  0.90090  0.62339  Biso   1.000  H
  N18      1.0000 0.87412  0.85021  0.75873  Biso   1.000  N
  H114     1.0000 0.82472  0.92001  0.77859  Biso   1.000  H
  C97      1.0000 0.37261  0.61529  0.83513  Biso   1.000  C
  C98      1.0000 0.76755  0.44921  0.95920  Biso   1.000  C
  C99      1.0000 0.53032  0.01861  0.64138  Biso   1.000  C
  C100     1.0000 0.93511  0.87840  0.79980  Biso   1.000  C
  C101     1.0000 0.34864  0.68550  0.82373  Biso   1.000  C
  C102     1.0000 0.32071  0.56572  0.80312  Biso   1.000  C
  H115     1.0000 0.38965  0.60752  0.88060  Biso   1.000  H
  H116     1.0000 0.33693  0.58332  0.81859  Biso   1.000  H
  H117     1.0000 0.79711  0.44689  0.93242  Biso   1.000  H
  H118     1.0000 0.76023  0.40281  0.97210  Biso   1.000  H
  C103     1.0000 0.75105  0.37619  0.97831  Biso   1.000  C
  C104     1.0000 0.79592  0.49102  0.01481  Biso   1.000  C
  H119     1.0000 0.49684  0.98699  0.61671  Biso   1.000  H
  C105     1.0000 0.50843  0.04332  0.69629  Biso   1.000  C
  C106     1.0000 0.53823  0.07621  0.59792  Biso   1.000  C
  C107     1.0000 0.96001  0.82510  0.84971  Biso   1.000  C
  H120     1.0000 0.92694  0.92142  0.81882  Biso   1.000  H
  C108     1.0000 0.98014  0.89041  0.75952  Biso   1.000  C
  H121     1.0000 0.96651  0.88662  0.77560  Biso   1.000  H
  N19      1.0000 0.40235  0.73078  0.85593  Biso   1.000  N
  C109     1.0000 0.29642  0.69230  0.85691  Biso   1.000  C
  H122     1.0000 0.33513  0.69513  0.77831  Biso   1.000  H
  H123     1.0000 0.31125  0.69220  0.84050  Biso   1.000  H
  C110     1.0000 0.26565  0.57202  0.83359  Biso   1.000  C
  H124     1.0000 0.33804  0.51922  0.80789  Biso   1.000  H
  H125     1.0000 0.30512  0.57610  0.75788  Biso   1.000  H
  H126     1.0000 0.73314  0.34930  0.94000  Biso   1.000  H
  H127     1.0000 0.71763  0.37961  0.00093  Biso   1.000  H
  C111     1.0000 0.81035  0.33962  0.02023  Biso   1.000  C
  N20      1.0000 0.81462  0.55669  0.99822  Biso   1.000  N
  H128     1.0000 0.76434  0.49642  0.03921  Biso   1.000  H
  H129     1.0000 0.83415  0.46772  0.04159  Biso   1.000  H
  C112     1.0000 0.85266  0.45380  0.05472  Biso   1.000  C
  N21      1.0000 0.49722  0.98689  0.73321  Biso   1.000  N
  H130     1.0000 0.54360  0.07152  0.72321  Biso   1.000  H
  C113     1.0000 0.44782  0.08770  0.67461  Biso   1.000  C
  C114     1.0000 0.47665  0.12069  0.57652  Biso   1.000  C
  H131     1.0000 0.54812  0.05679  0.56059  Biso   1.000  H
  H132     1.0000 0.57500  0.10480  0.61989  Biso   1.000  H
  N22      1.0000 0.91725  0.82101  0.88981  Biso   1.000  N
  H133     1.0000 0.96202  0.78092  0.82980  Biso   1.000  H
  C115     1.0000 0.02621  0.84502  0.89009  Biso   1.000  C
  H134     1.0000 0.00391  0.83710  0.87499  Biso   1.000  H
  H135     1.0000 0.96251  0.92611  0.72840  Biso   1.000  H
  H136     1.0000 0.98462  0.84860  0.73681  Biso   1.000  H
  C116     1.0000 0.04560  0.91189  0.80139  Biso   1.000  C
  C117     1.0000 0.41981  0.77148  0.82069  Biso   1.000  C
  H137     1.0000 0.28034  0.73921  0.85392  Biso   1.000  H
  H138     1.0000 0.31374  0.68050  0.90172  Biso   1.000  H
  C118     1.0000 0.23983  0.64202  0.82382  Biso   1.000  C
  H139     1.0000 0.23123  0.53929  0.81471  Biso   1.000  H
  H140     1.0000 0.28153  0.56229  0.87892  Biso   1.000  H
  H141     1.0000 0.84225  0.33180  0.99649  Biso   1.000  H
  H142     1.0000 0.79721  0.29519  0.03299  Biso   1.000  H
  C119     1.0000 0.83851  0.37951  0.07449  Biso   1.000  C
  C120     1.0000 0.78965  0.60732  0.01322  Biso   1.000  C
  H143     1.0000 0.87083  0.48038  0.09313  Biso   1.000  H
  H144     1.0000 0.88593  0.45113  0.03191  Biso   1.000  H
  C121     1.0000 0.53144  0.98149  0.79120  Biso   1.000  C
  H145     1.0000 0.41112  0.05951  0.65171  Biso   1.000  H
  H146     1.0000 0.43734  0.10702  0.71162  Biso   1.000  H
  C122     1.0000 0.45772  0.14323  0.63339  Biso   1.000  C
  H147     1.0000 0.48521  0.16053  0.55320  Biso   1.000  H
  H148     1.0000 0.44124  0.09451  0.54862  Biso   1.000  H
  C123     1.0000 0.89782  0.76402  0.90172  Biso   1.000  C
  C124     1.0000 0.07274  0.85652  0.84892  Biso   1.000  C
  H149     1.0000 0.04343  0.80901  0.92093  Biso   1.000  H
  H150     1.0000 0.02304  0.88693  0.91322  Biso   1.000  H
  H151     1.0000 0.04115  0.95421  0.82340  Biso   1.000  H
  H152     1.0000 0.07544  0.92052  0.77560  Biso   1.000  H
  C125     1.0000 0.47002  0.82409  0.84480  Biso   1.000  C
  H153     1.0000 0.40044  0.76871  0.77690  Biso   1.000  H
  H154     1.0000 0.20330  0.64712  0.84219  Biso   1.000  H
  H155     1.0000 0.22434  0.65201  0.77859  Biso   1.000  H
  H156     1.0000 0.87912  0.35828  0.09893  Biso   1.000  H
  H157     1.0000 0.80892  0.38148  0.10131  Biso   1.000  H
  C126     1.0000 0.80492  0.67732  0.99822  Biso   1.000  C
  H158     1.0000 0.75871  0.60122  0.03579  Biso   1.000  H
  C127     1.0000 0.52413  0.92753  0.83289  Biso   1.000  C
  H159     1.0000 0.56304  0.01503  0.80719  Biso   1.000  H
  H160     1.0000 0.49151  0.17359  0.65821  Biso   1.000  H
  H161     1.0000 0.41753  0.16971  0.61970  Biso   1.000  H
  C128     1.0000 0.85733  0.75232  0.94219  Biso   1.000  C
  H162     1.0000 0.91105  0.72579  0.88261  Biso   1.000  H
  H163     1.0000 0.11564  0.86973  0.87541  Biso   1.000  H
  H164     1.0000 0.07733  0.81420  0.82691  Biso   1.000  H
  C129     1.0000 0.50895  0.82101  0.90733  Biso   1.000  C
  C130     1.0000 0.47801  0.87139  0.80662  Biso   1.000  C
  C131     1.0000 0.84271  0.68923  0.95719  Biso   1.000  C
  C132     1.0000 0.78042  0.73391  0.02280  Biso   1.000  C
  C133     1.0000 0.55865  0.92349  0.89392  Biso   1.000  C
  C134     1.0000 0.83254  0.80830  0.96640  Biso   1.000  C
  H165     1.0000 0.50535  0.78339  0.93252  Biso   1.000  H
  C135     1.0000 0.55226  0.87240  0.93233  Biso   1.000  C
  H166     1.0000 0.45541  0.87018  0.76349  Biso   1.000  H
  H167     1.0000 0.85861  0.65181  0.93939  Biso   1.000  H
  C136     1.0000 0.79531  0.79892  0.00729  Biso   1.000  C
  H168     1.0000 0.75393  0.72761  0.05000  Biso   1.000  H
  H169     1.0000 0.58865  0.95829  0.91041  Biso   1.000  H
  H170     1.0000 0.84122  0.85263  0.95472  Biso   1.000  H
  C137     1.0000 0.58736  0.87099  0.99813  Biso   1.000  C
  C138     1.0000 0.77224  0.85520  0.03579  Biso   1.000  C
  N23      1.0000 0.62014  0.92031  0.02640  Biso   1.000  N
  H171     1.0000 0.58565  0.83110  0.02121  Biso   1.000  H
  N24      1.0000 0.74204  0.84991  0.07771  Biso   1.000  N
  H172     1.0000 0.77995  0.89933  0.02280  Biso   1.000  H
  C139     1.0000 0.64982  0.91260  0.09393  Biso   1.000  C
  C140     1.0000 0.72373  0.90861  0.10701  Biso   1.000  C
  C141     1.0000 0.62891  0.96969  0.12449  Biso   1.000  C
  H173     1.0000 0.63366  0.87109  0.10902  Biso   1.000  H
  H174     1.0000 0.63823  0.95153  0.11650  Biso   1.000  H
  H175     1.0000 0.73951  0.94972  0.09089  Biso   1.000  H
  C142     1.0000 0.75016  0.90821  0.17122  Biso   1.000  C
  H176     1.0000 0.74383  0.90660  0.15271  Biso   1.000  H
  C143     1.0000 0.65632  0.96081  0.19589  Biso   1.000  C
  H177     1.0000 0.58133  0.97150  0.11323  Biso   1.000  H
  H178     1.0000 0.64476  0.01241  0.11103  Biso   1.000  H
  H179     1.0000 0.79755  0.90892  0.17973  Biso   1.000  H
  H180     1.0000 0.73854  0.86499  0.18753  Biso   1.000  H
  C144     1.0000 0.73134  0.96389  0.20720  Biso   1.000  C
  H181     1.0000 0.64326  0.91689  0.20973  Biso   1.000  H
  H182     1.0000 0.64154  0.99743  0.21879  Biso   1.000  H
  H183     1.0000 0.75332  0.95880  0.25221  Biso   1.000  H
  H184     1.0000 0.74383  0.00792  0.19300  Biso   1.000  H
  C145     1.0000 0.47380  0.34502  0.60989  Biso   1.000  C
  C146     1.0000 0.54001  0.32510  0.65031  Biso   1.000  C
  C147     1.0000 0.42734  0.35652  0.65110  Biso   1.000  C
  H185     1.0000 0.45660  0.30901  0.57909  Biso   1.000  H
  H186     1.0000 0.47703  0.38693  0.58680  Biso   1.000  H
  H187     1.0000 0.49611  0.33710  0.62503  Biso   1.000  H
  N25      1.0000 0.58282  0.32101  0.61021  Biso   1.000  N
  H188     1.0000 0.53801  0.28092  0.67022  Biso   1.000  H
  C148     1.0000 0.56491  0.37840  0.70022  Biso   1.000  C
  C149     1.0000 0.45442  0.41189  0.69863  Biso   1.000  C
  H189     1.0000 0.38443  0.36968  0.62461  Biso   1.000  H
  H190     1.0000 0.42274  0.31420  0.67311  Biso   1.000  H
  C150     1.0000 0.60220  0.26402  0.59830  Biso   1.000  C
  N26      1.0000 0.62591  0.35021  0.74129  Biso   1.000  N
  H191     1.0000 0.57313  0.42142  0.68120  Biso   1.000  H
  C151     1.0000 0.51994  0.39041  0.74050  Biso   1.000  C
  H192     1.0000 0.53351  0.38662  0.72442  Biso   1.000  H
  H193     1.0000 0.45892  0.45421  0.67662  Biso   1.000  H
  H194     1.0000 0.42463  0.42052  0.72442  Biso   1.000  H
  C152     1.0000 0.64273  0.25232  0.55778  Biso   1.000  C
  H195     1.0000 0.58903  0.22579  0.61741  Biso   1.000  H
  C153     1.0000 0.67673  0.38012  0.74531  Biso   1.000  C
  H196     1.0000 0.53751  0.42611  0.77162  Biso   1.000  H
  H197     1.0000 0.51545  0.34860  0.76321  Biso   1.000  H
  C154     1.0000 0.65731  0.18918  0.54283  Biso   1.000  C
  C155     1.0000 0.66753  0.30830  0.53362  Biso   1.000  C
  C156     1.0000 0.74092  0.35702  0.78592  Biso   1.000  C
  H198     1.0000 0.67534  0.42001  0.72139  Biso   1.000  H
  C157     1.0000 0.69511  0.17732  0.50180  Biso   1.000  C
  H199     1.0000 0.64140  0.15181  0.56059  Biso   1.000  H
  H200     1.0000 0.65880  0.35258  0.54530  Biso   1.000  H
  C158     1.0000 0.70471  0.29892  0.49269  Biso   1.000  C
  C159     1.0000 0.79523  0.39833  0.79733  Biso   1.000  C
  C160     1.0000 0.74432  0.29579  0.81541  Biso   1.000  C
  C161     1.0000 0.71961  0.23391  0.47722  Biso   1.000  C
  C162     1.0000 0.71042  0.10732  0.48680  Biso   1.000  C
  C163     1.0000 0.72783  0.35520  0.46423  Biso   1.000  C
  C164     1.0000 0.85272  0.37810  0.83742  Biso   1.000  C
  H201     1.0000 0.79242  0.44079  0.77718  Biso   1.000  H
  C165     1.0000 0.80273  0.27249  0.85392  Biso   1.000  C
  H202     1.0000 0.70674  0.26911  0.80962  Biso   1.000  H
  H203     1.0000 0.74614  0.22761  0.45002  Biso   1.000  H
  N27      1.0000 0.68541  0.05669  0.50180  Biso   1.000  N
  H204     1.0000 0.74131  0.10122  0.46423  Biso   1.000  H
  N28      1.0000 0.75803  0.34991  0.42231  Biso   1.000  N
  H205     1.0000 0.72012  0.39928  0.47722  Biso   1.000  H
  C166     1.0000 0.85542  0.31531  0.86691  Biso   1.000  C
  C167     1.0000 0.90892  0.42062  0.85289  Biso   1.000  C
  C168     1.0000 0.80526  0.20612  0.88602  Biso   1.000  C
  C169     1.0000 0.70410  0.99102  0.48521  Biso   1.000  C
  C170     1.0000 0.77630  0.40861  0.39301  Biso   1.000  C
  H206     1.0000 0.89412  0.30169  0.89649  Biso   1.000  H
  N29      1.0000 0.91035  0.48169  0.83761  Biso   1.000  N
  H207     1.0000 0.94813  0.40090  0.87663  Biso   1.000  H
  N30      1.0000 0.85445  0.18272  0.92182  Biso   1.000  N
  H208     1.0000 0.76671  0.18060  0.87859  Biso   1.000  H
  C171     1.0000 0.73252  0.94921  0.54082  Biso   1.000  C
  H209     1.0000 0.73573  0.99642  0.46081  Biso   1.000  H
  H210     1.0000 0.66591  0.96772  0.45838  Biso   1.000  H
  C172     1.0000 0.64741  0.95380  0.44530  Biso   1.000  C
  H211     1.0000 0.76050  0.44972  0.40908  Biso   1.000  H
  C173     1.0000 0.74992  0.40821  0.32880  Biso   1.000  C
  C174     1.0000 0.85020  0.41260  0.40609  Biso   1.000  C
  H212     1.0000 0.75619  0.40660  0.34731  Biso   1.000  H
  C175     1.0000 0.96974  0.51861  0.85859  Biso   1.000  C
  C176     1.0000 0.84883  0.11680  0.95060  Biso   1.000  C
  N31      1.0000 0.79293  0.97932  0.57512  Biso   1.000  N
  H213     1.0000 0.70291  0.94689  0.56760  Biso   1.000  H
  H214     1.0000 0.73984  0.90281  0.52792  Biso   1.000  H
  C177     1.0000 0.74902  0.87619  0.52171  Biso   1.000  C
  C178     1.0000 0.66150  0.87951  0.42549  Biso   1.000  C
  H215     1.0000 0.62920  0.98038  0.40689  Biso   1.000  H
  H216     1.0000 0.61414  0.95108  0.46810  Biso   1.000  H
  H217     1.0000 0.70252  0.40892  0.32029  Biso   1.000  H
  H218     1.0000 0.76149  0.36499  0.31249  Biso   1.000  H
  C179     1.0000 0.76873  0.46389  0.29282  Biso   1.000  C
  N32      1.0000 0.87993  0.42031  0.47362  Biso   1.000  N
  C180     1.0000 0.87110  0.46969  0.37548  Biso   1.000  C
  H219     1.0000 0.86642  0.37109  0.39100  Biso   1.000  H
  H220     1.0000 0.86180  0.45148  0.38352  Biso   1.000  H
  C181     1.0000 0.99164  0.54332  0.80373  Biso   1.000  C
  C182     1.0000 0.96184  0.57621  0.90210  Biso   1.000  C
  H221     1.0000 0.00323  0.48699  0.88331  Biso   1.000  H
  H222     1.0000 0.80432  0.09900  0.93261  Biso   1.000  H
  C183     1.0000 0.89673  0.06788  0.93509  Biso   1.000  C
  C184     1.0000 0.86093  0.12381  0.01869  Biso   1.000  C
  C185     1.0000 0.79901  0.00429  0.62769  Biso   1.000  C
  H223     1.0000 0.78239  0.87961  0.49909  Biso   1.000  H
  H224     1.0000 0.76693  0.84930  0.56002  Biso   1.000  H
  C186     1.0000 0.68973  0.83962  0.47979  Biso   1.000  C
  H225     1.0000 0.62090  0.85828  0.40109  Biso   1.000  H
  H226     1.0000 0.69111  0.88148  0.39871  Biso   1.000  H
  H227     1.0000 0.75619  0.50792  0.30702  Biso   1.000  H
  H228     1.0000 0.74670  0.45880  0.24781  Biso   1.000  H
  C187     1.0000 0.84371  0.46081  0.30413  Biso   1.000  C
  C188     1.0000 0.91272  0.37099  0.50189  Biso   1.000  C
  H229     1.0000 0.91869  0.47150  0.38679  Biso   1.000  H
  H230     1.0000 0.85532  0.51241  0.38899  Biso   1.000  H
  H231     1.0000 0.95642  0.57152  0.77681  Biso   1.000  H
  N33      1.0000 0.00285  0.48689  0.76681  Biso   1.000  N
  C189     1.0000 0.05225  0.58770  0.82541  Biso   1.000  C
  H232     1.0000 0.95194  0.55679  0.93939  Biso   1.000  H
  H233     1.0000 0.92501  0.60480  0.88009  Biso   1.000  H
  C190     1.0000 0.02343  0.62069  0.92350  Biso   1.000  C
  N34      1.0000 0.88231  0.06032  0.86859  Biso   1.000  N
  C191     1.0000 0.89302  0.00061  0.96392  Biso   1.000  C
  H234     1.0000 0.94111  0.08629  0.95149  Biso   1.000  H
  H235     1.0000 0.82865  0.15468  0.02762  Biso   1.000  H
  H236     1.0000 0.90393  0.14379  0.03659  Biso   1.000  H
  C192     1.0000 0.85744  0.05538  0.05009  Biso   1.000  C
  C193     1.0000 0.85541  0.03298  0.67050  Biso   1.000  C
  H237     1.0000 0.76134  0.00429  0.64171  Biso   1.000  H
  H238     1.0000 0.70280  0.79519  0.46698  Biso   1.000  H
  H239     1.0000 0.65783  0.83180  0.50353  Biso   1.000  H
  H240     1.0000 0.85681  0.41689  0.29029  Biso   1.000  H
  H241     1.0000 0.85852  0.49743  0.28118  Biso   1.000  H
  C194     1.0000 0.94781  0.37240  0.56769  Biso   1.000  C
  H242     1.0000 0.91442  0.33110  0.47881  Biso   1.000  H
  C195     1.0000 0.96863  0.48149  0.70882  Biso   1.000  C
  H243     1.0000 0.08891  0.55951  0.84831  Biso   1.000  H
  H244     1.0000 0.06274  0.60702  0.78840  Biso   1.000  H
  C196     1.0000 0.04235  0.64318  0.86663  Biso   1.000  C
  H245     1.0000 0.01482  0.66053  0.94682  Biso   1.000  H
  H246     1.0000 0.05883  0.59451  0.95140  Biso   1.000  H
  C197     1.0000 0.92460  0.07731  0.84078  Biso   1.000  C
  H247     1.0000 0.85023  0.98058  0.94481  Biso   1.000  H
  H248     1.0000 0.92561  0.97029  0.95481  Biso   1.000  H
  C198     1.0000 0.90363  0.00479  0.03131  Biso   1.000  C
  H249     1.0000 0.81296  0.03788  0.03673  Biso   1.000  H
  H250     1.0000 0.86983  0.06102  0.09612  Biso   1.000  H
  C199     1.0000 0.90870  0.04539  0.64760  Biso   1.000  C
  C200     1.0000 0.85964  0.04529  0.73279  Biso   1.000  C
  C201     1.0000 0.99112  0.32101  0.59269  Biso   1.000  C
  C202     1.0000 0.94142  0.42349  0.60610  Biso   1.000  C
  C203     1.0000 0.97593  0.42753  0.66709  Biso   1.000  C
  H251     1.0000 0.93702  0.51503  0.69279  Biso   1.000  H
  H252     1.0000 0.00852  0.67359  0.84181  Biso   1.000  H
  H253     1.0000 0.08254  0.66971  0.88032  Biso   1.000  H
  C204     1.0000 0.91621  0.06940  0.77391  Biso   1.000  C
  H254     1.0000 0.96385  0.09628  0.86532  Biso   1.000  H
  H255     1.0000 0.89763  0.95960  0.04771  Biso   1.000  H
  H256     1.0000 0.94853  0.01891  0.05103  Biso   1.000  H
  H257     1.0000 0.90521  0.03742  0.60479  Biso   1.000  H
  C205     1.0000 0.96620  0.06899  0.68629  Biso   1.000  C
  H258     1.0000 0.82322  0.03712  0.74779  Biso   1.000  H
  H259     1.0000 0.99472  0.28339  0.56750  Biso   1.000  H
  C206     1.0000 0.03005  0.32409  0.65522  Biso   1.000  C
  H260     1.0000 0.91142  0.45829  0.58961  Biso   1.000  H
  C207     1.0000 0.02201  0.37139  0.69340  Biso   1.000  C
  C208     1.0000 0.97011  0.07918  0.74943  Biso   1.000  C
  C209     1.0000 0.02283  0.08160  0.66232  Biso   1.000  C
  C210     1.0000 0.08022  0.27148  0.67933  Biso   1.000  C
  H261     1.0000 0.04462  0.37018  0.73653  Biso   1.000  H
  H262     1.0000 0.00990  0.09320  0.77700  Biso   1.000  H
  N35      1.0000 0.07541  0.10339  0.69620  Biso   1.000  N
  H263     1.0000 0.01911  0.07278  0.61951  Biso   1.000  H
  N36      1.0000 0.09772  0.23078  0.64409  Biso   1.000  N
  H264     1.0000 0.09964  0.26871  0.72312  Biso   1.000  H
  C211     1.0000 0.12741  0.11529  0.66489  Biso   1.000  C
  C212     1.0000 0.15143  0.18550  0.67629  Biso   1.000  C
  C213     1.0000 0.17932  0.06572  0.69690  Biso   1.000  C
  H265     1.0000 0.11042  0.10752  0.61942  Biso   1.000  H
  H266     1.0000 0.16313  0.08332  0.68139  Biso   1.000  H
  C214     1.0000 0.20360  0.19230  0.64311  Biso   1.000  C
  H267     1.0000 0.16495  0.19508  0.72171  Biso   1.000  H
  H268     1.0000 0.18882  0.19220  0.65952  Biso   1.000  H
  C215     1.0000 0.23441  0.07202  0.66638  Biso   1.000  C
  H269     1.0000 0.16202  0.01922  0.69209  Biso   1.000  H
  H270     1.0000 0.19494  0.07610  0.74209  Biso   1.000  H
  H271     1.0000 0.21974  0.23921  0.64610  Biso   1.000  H
  H272     1.0000 0.18634  0.18050  0.59830  Biso   1.000  H
  C216     1.0000 0.26020  0.14202  0.67620  Biso   1.000  C
  H273     1.0000 0.26884  0.03929  0.68531  Biso   1.000  H
  H274     1.0000 0.21854  0.06229  0.62110  Biso   1.000  H
  H275     1.0000 0.29671  0.14712  0.65779  Biso   1.000  H
  H276     1.0000 0.27572  0.15201  0.72139  Biso   1.000  H
  C217     1.0000 0.52621  0.34502  0.39011  Biso   1.000  C
  C218     1.0000 0.46000  0.32510  0.34969  Biso   1.000  C
  H277     1.0000 0.50391  0.33710  0.37502  Biso   1.000  H
  C219     1.0000 0.57272  0.35652  0.34889  Biso   1.000  C
  H278     1.0000 0.54342  0.30901  0.42091  Biso   1.000  H
  H279     1.0000 0.52303  0.38693  0.41320  Biso   1.000  H
  C220     1.0000 0.43510  0.37840  0.29978  Biso   1.000  C
  N37      1.0000 0.41719  0.32101  0.38978  Biso   1.000  N
  H280     1.0000 0.46201  0.28092  0.32978  Biso   1.000  H
  C221     1.0000 0.54560  0.41189  0.30142  Biso   1.000  C
  H281     1.0000 0.61563  0.36968  0.37539  Biso   1.000  H
  H282     1.0000 0.57732  0.31420  0.32688  Biso   1.000  H
  N38      1.0000 0.37411  0.35021  0.25870  Biso   1.000  N
  H283     1.0000 0.42693  0.42142  0.31880  Biso   1.000  H
  C222     1.0000 0.48012  0.39041  0.25950  Biso   1.000  C
  H284     1.0000 0.46651  0.38662  0.27562  Biso   1.000  H
  C223     1.0000 0.39781  0.26402  0.40170  Biso   1.000  C
  H285     1.0000 0.54110  0.45421  0.32343  Biso   1.000  H
  H286     1.0000 0.57540  0.42052  0.27562  Biso   1.000  H
  C224     1.0000 0.32332  0.38012  0.25468  Biso   1.000  C
  H287     1.0000 0.46252  0.42611  0.22842  Biso   1.000  H
  H288     1.0000 0.48461  0.34860  0.23679  Biso   1.000  H
  C225     1.0000 0.35733  0.25232  0.44222  Biso   1.000  C
  H289     1.0000 0.41099  0.22579  0.38259  Biso   1.000  H
  C226     1.0000 0.25911  0.35702  0.21412  Biso   1.000  C
  H290     1.0000 0.32472  0.42001  0.27861  Biso   1.000  H
  C227     1.0000 0.34271  0.18918  0.45722  Biso   1.000  C
  C228     1.0000 0.33254  0.30830  0.46642  Biso   1.000  C
  C229     1.0000 0.25570  0.29579  0.18459  Biso   1.000  C
  C230     1.0000 0.20479  0.39833  0.20272  Biso   1.000  C
  C231     1.0000 0.30491  0.17732  0.49820  Biso   1.000  C
  H291     1.0000 0.35861  0.15181  0.43941  Biso   1.000  H
  H292     1.0000 0.34121  0.35258  0.45469  Biso   1.000  H
  C232     1.0000 0.29531  0.29892  0.50731  Biso   1.000  C
  C233     1.0000 0.19728  0.27249  0.14608  Biso   1.000  C
  H293     1.0000 0.29332  0.26911  0.19038  Biso   1.000  H
  C234     1.0000 0.14731  0.37810  0.16262  Biso   1.000  C
  H294     1.0000 0.20760  0.44079  0.22281  Biso   1.000  H
  C235     1.0000 0.28042  0.23391  0.52283  Biso   1.000  C
  C236     1.0000 0.28964  0.10732  0.51320  Biso   1.000  C
  C237     1.0000 0.27224  0.35520  0.53582  Biso   1.000  C
  C238     1.0000 0.14459  0.31531  0.13309  Biso   1.000  C
  C239     1.0000 0.19482  0.20612  0.11402  Biso   1.000  C
  C240     1.0000 0.09109  0.42062  0.14711  Biso   1.000  C
  H295     1.0000 0.25393  0.22761  0.55002  Biso   1.000  H
  N39      1.0000 0.31460  0.05669  0.49820  Biso   1.000  N
  H296     1.0000 0.25871  0.10122  0.53582  Biso   1.000  H
  N40      1.0000 0.24203  0.34991  0.57769  Biso   1.000  N
  H297     1.0000 0.27991  0.39928  0.52283  Biso   1.000  H
  H298     1.0000 0.10589  0.30169  0.10351  Biso   1.000  H
  N41      1.0000 0.14561  0.18272  0.07818  Biso   1.000  N
  H299     1.0000 0.23330  0.18060  0.12141  Biso   1.000  H
  N42      1.0000 0.08971  0.48169  0.16239  Biso   1.000  N
  H300     1.0000 0.05189  0.40090  0.12342  Biso   1.000  H
  C241     1.0000 0.29591  0.99102  0.51479  Biso   1.000  C
  C242     1.0000 0.22372  0.40861  0.60699  Biso   1.000  C
  C243     1.0000 0.15119  0.11680  0.04939  Biso   1.000  C
  C244     1.0000 0.03032  0.51861  0.14141  Biso   1.000  C
  C245     1.0000 0.26751  0.94921  0.45923  Biso   1.000  C
  H301     1.0000 0.26433  0.99642  0.53918  Biso   1.000  H
  H302     1.0000 0.33410  0.96772  0.54161  Biso   1.000  H
  C246     1.0000 0.35260  0.95380  0.55470  Biso   1.000  C
  H303     1.0000 0.23951  0.44972  0.59091  Biso   1.000  H
  C247     1.0000 0.25014  0.40821  0.67120  Biso   1.000  C
  C248     1.0000 0.14981  0.41260  0.59390  Biso   1.000  C
  H304     1.0000 0.24382  0.40660  0.65269  Biso   1.000  H
  H305     1.0000 0.19569  0.09900  0.06739  Biso   1.000  H
  C249     1.0000 0.10332  0.06788  0.06491  Biso   1.000  C
  C250     1.0000 0.13908  0.12381  0.98131  Biso   1.000  C
  C251     1.0000 0.00843  0.54332  0.19632  Biso   1.000  C
  C252     1.0000 0.03822  0.57621  0.09790  Biso   1.000  C
  H306     1.0000 0.99678  0.48699  0.11669  Biso   1.000  H
  N43      1.0000 0.20710  0.97932  0.42493  Biso   1.000  N
  H307     1.0000 0.29710  0.94689  0.43240  Biso   1.000  H
  H308     1.0000 0.26023  0.90281  0.47212  Biso   1.000  H
  C253     1.0000 0.25099  0.87619  0.47829  Biso   1.000  C
  C254     1.0000 0.33851  0.87951  0.57451  Biso   1.000  C
  H309     1.0000 0.37081  0.98038  0.59311  Biso   1.000  H
  H310     1.0000 0.38592  0.95108  0.53189  Biso   1.000  H
  H311     1.0000 0.29754  0.40892  0.67970  Biso   1.000  H
  H312     1.0000 0.23852  0.36499  0.68751  Biso   1.000  H
  C255     1.0000 0.23134  0.46389  0.70723  Biso   1.000  C
  N44      1.0000 0.12014  0.42031  0.52643  Biso   1.000  N
  C256     1.0000 0.12891  0.46969  0.62451  Biso   1.000  C
  H313     1.0000 0.13360  0.37109  0.60900  Biso   1.000  H
  H314     1.0000 0.13823  0.45148  0.61652  Biso   1.000  H
  N45      1.0000 0.11770  0.06032  0.13141  Biso   1.000  N
  C257     1.0000 0.10701  0.00061  0.03612  Biso   1.000  C
  H315     1.0000 0.05890  0.08629  0.04851  Biso   1.000  H
  H316     1.0000 0.17141  0.15468  0.97238  Biso   1.000  H
  H317     1.0000 0.09608  0.14379  0.96341  Biso   1.000  H
  C258     1.0000 0.14262  0.05538  0.94990  Biso   1.000  C
  H318     1.0000 0.04359  0.57152  0.22319  Biso   1.000  H
  N46      1.0000 0.99721  0.48689  0.23319  Biso   1.000  N
  C259     1.0000 0.94781  0.58770  0.17459  Biso   1.000  C
  H319     1.0000 0.04812  0.55679  0.06061  Biso   1.000  H
  H320     1.0000 0.07500  0.60480  0.11991  Biso   1.000  H
  C260     1.0000 0.97659  0.62069  0.07650  Biso   1.000  C
  C261     1.0000 0.20101  0.00429  0.37231  Biso   1.000  C
  H321     1.0000 0.21762  0.87961  0.50091  Biso   1.000  H
  H322     1.0000 0.23314  0.84930  0.44002  Biso   1.000  H
  C262     1.0000 0.31033  0.83962  0.52021  Biso   1.000  C
  H323     1.0000 0.37911  0.85828  0.59891  Biso   1.000  H
  H324     1.0000 0.30891  0.88148  0.60129  Biso   1.000  H
  H325     1.0000 0.24383  0.50792  0.69302  Biso   1.000  H
  H326     1.0000 0.25332  0.45880  0.75223  Biso   1.000  H
  C263     1.0000 0.15632  0.46081  0.69592  Biso   1.000  C
  C264     1.0000 0.08730  0.37099  0.49811  Biso   1.000  C
  H327     1.0000 0.08132  0.47150  0.61320  Biso   1.000  H
  H328     1.0000 0.14474  0.51241  0.61101  Biso   1.000  H
  C265     1.0000 0.07541  0.07731  0.15921  Biso   1.000  C
  H329     1.0000 0.14979  0.98058  0.05519  Biso   1.000  H
  H330     1.0000 0.07440  0.97029  0.04519  Biso   1.000  H
  C266     1.0000 0.09638  0.00479  0.96869  Biso   1.000  C
  H331     1.0000 0.18712  0.03788  0.96332  Biso   1.000  H
  H332     1.0000 0.13020  0.06102  0.90392  Biso   1.000  H
  C267     1.0000 0.03138  0.48149  0.29118  Biso   1.000  C
  H333     1.0000 0.91110  0.55951  0.15169  Biso   1.000  H
  H334     1.0000 0.93732  0.60702  0.21160  Biso   1.000  H
  C268     1.0000 0.95772  0.64318  0.13342  Biso   1.000  C
  H335     1.0000 0.98520  0.66053  0.05318  Biso   1.000  H
  H336     1.0000 0.94118  0.59451  0.04860  Biso   1.000  H
  C269     1.0000 0.14460  0.03298  0.32950  Biso   1.000  C
  H337     1.0000 0.23872  0.00429  0.35829  Biso   1.000  H
  H338     1.0000 0.29721  0.79519  0.53301  Biso   1.000  H
  H339     1.0000 0.34220  0.83180  0.49652  Biso   1.000  H
  H340     1.0000 0.14320  0.41689  0.70970  Biso   1.000  H
  H341     1.0000 0.14154  0.49743  0.71882  Biso   1.000  H
  C270     1.0000 0.05220  0.37240  0.43231  Biso   1.000  C
  H342     1.0000 0.08559  0.33110  0.52119  Biso   1.000  H
  C271     1.0000 0.08380  0.06940  0.22608  Biso   1.000  C
  H343     1.0000 0.03621  0.09628  0.13468  Biso   1.000  H
  H344     1.0000 0.10239  0.95960  0.95229  Biso   1.000  H
  H345     1.0000 0.05149  0.01891  0.94902  Biso   1.000  H
  C272     1.0000 0.02413  0.42753  0.33291  Biso   1.000  C
  H346     1.0000 0.06300  0.51503  0.30721  Biso   1.000  H
  H347     1.0000 0.99150  0.67359  0.15818  Biso   1.000  H
  H348     1.0000 0.91752  0.66971  0.11968  Biso   1.000  H
  C273     1.0000 0.14042  0.04529  0.26721  Biso   1.000  C
  C274     1.0000 0.09131  0.04539  0.35240  Biso   1.000  C
  C275     1.0000 0.05860  0.42349  0.39390  Biso   1.000  C
  C276     1.0000 0.00894  0.32101  0.40731  Biso   1.000  C
  C277     1.0000 0.02992  0.07918  0.25062  Biso   1.000  C
  C278     1.0000 0.97800  0.37139  0.30660  Biso   1.000  C
  H349     1.0000 0.17679  0.03712  0.25221  Biso   1.000  H
  C279     1.0000 0.03381  0.06899  0.31371  Biso   1.000  C
  H350     1.0000 0.09480  0.03742  0.39520  Biso   1.000  H
  H351     1.0000 0.08859  0.45829  0.41039  Biso   1.000  H
  C280     1.0000 0.97001  0.32409  0.34478  Biso   1.000  C
  H352     1.0000 0.00529  0.28339  0.43250  Biso   1.000  H
  H353     1.0000 0.99011  0.09320  0.22300  Biso   1.000  H
  H354     1.0000 0.95541  0.37018  0.26352  Biso   1.000  H
  C281     1.0000 0.97720  0.08160  0.33773  Biso   1.000  C
  C282     1.0000 0.91981  0.27148  0.32072  Biso   1.000  C
  N47      1.0000 0.92461  0.10339  0.30380  Biso   1.000  N
  H355     1.0000 0.98090  0.07278  0.38048  Biso   1.000  H
  N48      1.0000 0.90229  0.23078  0.35590  Biso   1.000  N
  H356     1.0000 0.90042  0.26871  0.27688  Biso   1.000  H
  C283     1.0000 0.87260  0.11529  0.33511  Biso   1.000  C
  C284     1.0000 0.84863  0.18550  0.32371  Biso   1.000  C
  C285     1.0000 0.82069  0.06572  0.30310  Biso   1.000  C
  H357     1.0000 0.88960  0.10752  0.38062  Biso   1.000  H
  H358     1.0000 0.83693  0.08332  0.31861  Biso   1.000  H
  C286     1.0000 0.79641  0.19230  0.35689  Biso   1.000  C
  H359     1.0000 0.83511  0.19508  0.27828  Biso   1.000  H
  H360     1.0000 0.81119  0.19220  0.34048  Biso   1.000  H
  C287     1.0000 0.76560  0.07202  0.33361  Biso   1.000  C
  H361     1.0000 0.83799  0.01922  0.30791  Biso   1.000  H
  H362     1.0000 0.80512  0.07610  0.25791  Biso   1.000  H
  H363     1.0000 0.78032  0.23921  0.35389  Biso   1.000  H
  H364     1.0000 0.81372  0.18050  0.40170  Biso   1.000  H
  C288     1.0000 0.73981  0.14202  0.32380  Biso   1.000  C
  H365     1.0000 0.73122  0.03929  0.31469  Biso   1.000  H
  H366     1.0000 0.78152  0.06229  0.37890  Biso   1.000  H
  H367     1.0000 0.70330  0.14712  0.34221  Biso   1.000  H
  H368     1.0000 0.72429  0.15201  0.27861  Biso   1.000  H
