data_image0
_cell_length_a       10.788
_cell_length_b       29.058
_cell_length_c       32.291
_cell_angle_alpha    90
_cell_angle_beta     90
_cell_angle_gamma    90

_symmetry_space_group_name_H-M    "P 1"
_symmetry_int_tables_number       1

loop_
  _symmetry_equiv_pos_as_xyz
  'x, y, z'

loop_
  _atom_site_label
  _atom_site_occupancy
  _atom_site_fract_x
  _atom_site_fract_y
  _atom_site_fract_z
  _atom_site_thermal_displace_type
  _atom_site_B_iso_or_equiv
  _atom_site_type_symbol
  C1       1.0000 0.52067  0.50991  0.46180  Biso   1.000  C
  O1       1.0000 0.49027  0.47209  0.43520  Biso   1.000  O
  C2       1.0000 0.63089  0.53479  0.44390  Biso   1.000  C
  H1       1.0000 0.54412  0.49759  0.48899  Biso   1.000  H
  C3       1.0000 0.40406  0.53799  0.46691  Biso   1.000  C
  C4       1.0000 0.58259  0.43688  0.43538  Biso   1.000  C
  C5       1.0000 0.73526  0.50120  0.44201  Biso   1.000  C
  H2       1.0000 0.61096  0.54529  0.41591  Biso   1.000  H
  O2       1.0000 0.66861  0.57272  0.46809  Biso   1.000  O
  H3       1.0000 0.33584  0.51790  0.47440  Biso   1.000  H
  H4       1.0000 0.41537  0.56009  0.48908  Biso   1.000  H
  O3       1.0000 0.37625  0.56081  0.43058  Biso   1.000  O
  O4       1.0000 0.59622  0.41720  0.47431  Biso   1.000  O
  H5       1.0000 0.55729  0.41280  0.41600  Biso   1.000  H
  C6       1.0000 0.70263  0.45619  0.42129  Biso   1.000  C
  H6       1.0000 0.76270  0.49460  0.47029  Biso   1.000  H
  O5       1.0000 0.83843  0.52041  0.41931  Biso   1.000  O
  C7       1.0000 0.62217  0.61591  0.45870  Biso   1.000  C
  C8       1.0000 0.26446  0.58679  0.43319  Biso   1.000  C
  C9       1.0000 0.52039  0.37511  0.47961  Biso   1.000  C
  H7       1.0000 0.69225  0.46311  0.39181  Biso   1.000  H
  O6       1.0000 0.80080  0.42401  0.42390  Biso   1.000  O
  C10      1.0000 0.94559  0.53452  0.44099  Biso   1.000  C
  H8       1.0000 0.58027  0.61450  0.43179  Biso   1.000  H
  C11      1.0000 0.72970  0.65128  0.45601  Biso   1.000  C
  O7       1.0000 0.53708  0.63150  0.48871  Biso   1.000  O
  H9       1.0000 0.24889  0.60159  0.40720  Biso   1.000  H
  H10      1.0000 0.27243  0.60961  0.45449  Biso   1.000  H
  H11      1.0000 0.19679  0.56659  0.43969  Biso   1.000  H
  C12      1.0000 0.59631  0.33289  0.47989  Biso   1.000  C
  H12      1.0000 0.45940  0.37312  0.45719  Biso   1.000  H
  C13      1.0000 0.44920  0.38021  0.52321  Biso   1.000  C
  C14      1.0000 0.87301  0.41668  0.38841  Biso   1.000  C
  H13      1.0000 0.98137  0.50850  0.45489  Biso   1.000  H
  H14      1.0000 0.92371  0.55761  0.46090  Biso   1.000  H
  H15      1.0000 0.00473  0.54701  0.42179  Biso   1.000  H
  H16      1.0000 0.69624  0.68091  0.44650  Biso   1.000  H
  C15      1.0000 0.79023  0.65820  0.49841  Biso   1.000  C
  O8       1.0000 0.81804  0.63700  0.42870  Biso   1.000  O
  C16      1.0000 0.59029  0.63380  0.52931  Biso   1.000  C
  O9       1.0000 0.63858  0.32831  0.43851  Biso   1.000  O
  C17      1.0000 0.53003  0.29090  0.49271  Biso   1.000  C
  H17      1.0000 0.66778  0.33760  0.49819  Biso   1.000  H
  O10      1.0000 0.38608  0.33870  0.53160  Biso   1.000  O
  H18      1.0000 0.51483  0.38199  0.54421  Biso   1.000  H
  C18      1.0000 0.35595  0.41610  0.53551  Biso   1.000  C
  H19      1.0000 0.93687  0.39449  0.39441  Biso   1.000  H
  H20      1.0000 0.91101  0.44521  0.38011  Biso   1.000  H
  H21      1.0000 0.82193  0.40540  0.36639  Biso   1.000  H
  H22      1.0000 0.83760  0.63070  0.50590  Biso   1.000  H
  C19      1.0000 0.69577  0.66859  0.53179  Biso   1.000  C
  O11      1.0000 0.87329  0.69671  0.49289  Biso   1.000  O
  C20      1.0000 0.83102  0.65531  0.39011  Biso   1.000  C
  H23      1.0000 0.62468  0.60341  0.53578  Biso   1.000  H
  C21      1.0000 0.48684  0.64340  0.56009  Biso   1.000  C
  C22      1.0000 0.76103  0.31100  0.43511  Biso   1.000  C
  C23      1.0000 0.45949  0.29789  0.53411  Biso   1.000  C
  H24      1.0000 0.46663  0.28509  0.47149  Biso   1.000  H
  O12      1.0000 0.60651  0.25360  0.49258  Biso   1.000  O
  H25      1.0000 0.30432  0.40691  0.55848  Biso   1.000  H
  H26      1.0000 0.39331  0.44600  0.54058  Biso   1.000  H
  O13      1.0000 0.29700  0.41331  0.49760  Biso   1.000  O
  H27      1.0000 0.66250  0.69950  0.52739  Biso   1.000  H
  O14      1.0000 0.76159  0.66760  0.56938  Biso   1.000  O
  C24      1.0000 0.99537  0.69041  0.50540  Biso   1.000  C
  H28      1.0000 0.89905  0.64062  0.37620  Biso   1.000  H
  H29      1.0000 0.84742  0.68769  0.39240  Biso   1.000  H
  H30      1.0000 0.75640  0.65049  0.37459  Biso   1.000  H
  H31      1.0000 0.41871  0.62220  0.55551  Biso   1.000  H
  H32      1.0000 0.51696  0.63889  0.58809  Biso   1.000  H
  O15      1.0000 0.44503  0.68931  0.55520  Biso   1.000  O
  H33      1.0000 0.78356  0.30921  0.40640  Biso   1.000  H
  H34      1.0000 0.76483  0.28089  0.44718  Biso   1.000  H
  H35      1.0000 0.81702  0.33120  0.44929  Biso   1.000  H
  O16      1.0000 0.54190  0.30191  0.56731  Biso   1.000  O
  H36      1.0000 0.40489  0.27139  0.53891  Biso   1.000  H
  C25      1.0000 0.55599  0.21282  0.47580  Biso   1.000  C
  C26      1.0000 0.17000  0.42629  0.49001  Biso   1.000  C
  C27      1.0000 0.71654  0.69440  0.60230  Biso   1.000  C
  H37      1.0000 0.99750  0.68401  0.53461  Biso   1.000  H
  H38      1.0000 0.04199  0.71791  0.49989  Biso   1.000  H
  H39      1.0000 0.03105  0.66508  0.49051  Biso   1.000  H
  C28      1.0000 0.31767  0.70321  0.54811  Biso   1.000  C
  C29      1.0000 0.50686  0.27841  0.60429  Biso   1.000  C
  H40      1.0000 0.61726  0.18869  0.47710  Biso   1.000  H
  H41      1.0000 0.53328  0.21791  0.44749  Biso   1.000  H
  H42      1.0000 0.48461  0.20390  0.49150  Biso   1.000  H
  H43      1.0000 0.13877  0.41001  0.46638  Biso   1.000  H
  H44      1.0000 0.16528  0.45881  0.48500  Biso   1.000  H
  H45      1.0000 0.12041  0.41889  0.51389  Biso   1.000  H
  H46      1.0000 0.64748  0.71340  0.59239  Biso   1.000  H
  C30      1.0000 0.81720  0.72459  0.61711  Biso   1.000  C
  O17      1.0000 0.67464  0.66560  0.63479  Biso   1.000  O
  H47      1.0000 0.31470  0.73560  0.54260  Biso   1.000  H
  H48      1.0000 0.26882  0.69630  0.57211  Biso   1.000  H
  H49      1.0000 0.28522  0.68670  0.52470  Biso   1.000  H
  C31      1.0000 0.60178  0.24420  0.61531  Biso   1.000  C
  H50      1.0000 0.42686  0.26309  0.60020  Biso   1.000  H
  C32      1.0000 0.49629  0.31379  0.63919  Biso   1.000  C
  H51      1.0000 0.78207  0.74489  0.63829  Biso   1.000  H
  C33      1.0000 0.92399  0.69791  0.63721  Biso   1.000  C
  O18      1.0000 0.86995  0.75239  0.58691  Biso   1.000  O
  C34      1.0000 0.76947  0.63511  0.65089  Biso   1.000  C
  C35      1.0000 0.58648  0.22431  0.65699  Biso   1.000  C
  H52      1.0000 0.68437  0.25800  0.61290  Biso   1.000  H
  O19      1.0000 0.58917  0.20769  0.58570  Biso   1.000  O
  H53      1.0000 0.57073  0.33320  0.63959  Biso   1.000  H
  C36      1.0000 0.38496  0.34311  0.63411  Biso   1.000  C
  O20      1.0000 0.48063  0.29169  0.67889  Biso   1.000  O
  H54      1.0000 0.96663  0.68029  0.61550  Biso   1.000  H
  C37      1.0000 0.87273  0.66419  0.66901  Biso   1.000  C
  O21      1.0000 0.01122  0.72741  0.65631  Biso   1.000  O
  C38      1.0000 0.82295  0.79720  0.58409  Biso   1.000  C
  H55      1.0000 0.80376  0.61749  0.62770  Biso   1.000  H
  C39      1.0000 0.70801  0.60159  0.68000  Biso   1.000  C
  C40      1.0000 0.58074  0.26220  0.69019  Biso   1.000  C
  H56      1.0000 0.50844  0.20710  0.65758  Biso   1.000  H
  O22      1.0000 0.68131  0.19489  0.66820  Biso   1.000  O
  C41      1.0000 0.70004  0.19189  0.57069  Biso   1.000  C
  H57      1.0000 0.38571  0.35670  0.60670  Biso   1.000  H
  H58      1.0000 0.31136  0.32401  0.63618  Biso   1.000  H
  O23      1.0000 0.37699  0.37842  0.66359  Biso   1.000  O
  H59      1.0000 0.84168  0.68119  0.69310  Biso   1.000  H
  O24      1.0000 0.96728  0.63249  0.68189  Biso   1.000  O
  C42      1.0000 0.11735  0.73680  0.63200  Biso   1.000  C
  H60      1.0000 0.86800  0.81399  0.56341  Biso   1.000  H
  H61      1.0000 0.83157  0.81231  0.61039  Biso   1.000  H
  H62      1.0000 0.73684  0.79599  0.57660  Biso   1.000  H
  H63      1.0000 0.63849  0.58731  0.66601  Biso   1.000  H
  H64      1.0000 0.76659  0.57760  0.68719  Biso   1.000  H
  O25      1.0000 0.66620  0.62251  0.71590  Biso   1.000  O
  O26      1.0000 0.69216  0.28770  0.69001  Biso   1.000  O
  H65      1.0000 0.56618  0.24871  0.71760  Biso   1.000  H
  C43      1.0000 0.64600  0.15029  0.67960  Biso   1.000  C
  H66      1.0000 0.68576  0.16691  0.55179  Biso   1.000  H
  H67      1.0000 0.75083  0.18129  0.59329  Biso   1.000  H
  H68      1.0000 0.74249  0.21629  0.55650  Biso   1.000  H
  C44      1.0000 0.46301  0.41500  0.67499  Biso   1.000  C
  C45      1.0000 0.04542  0.64719  0.71621  Biso   1.000  C
  H69      1.0000 0.17149  0.75711  0.64690  Biso   1.000  H
  H70      1.0000 0.09251  0.75102  0.60648  Biso   1.000  H
  H71      1.0000 0.16009  0.70851  0.62621  Biso   1.000  H
  C46      1.0000 0.59798  0.58731  0.74048  Biso   1.000  C
  C47      1.0000 0.76483  0.28608  0.72791  Biso   1.000  C
  H72      1.0000 0.71802  0.13260  0.68620  Biso   1.000  H
  H73      1.0000 0.60261  0.13611  0.65690  Biso   1.000  H
  H74      1.0000 0.59214  0.15170  0.70329  Biso   1.000  H
  H75      1.0000 0.42733  0.43310  0.69651  Biso   1.000  H
  H76      1.0000 0.47979  0.43351  0.65120  Biso   1.000  H
  H77      1.0000 0.53893  0.40120  0.68471  Biso   1.000  H
  O27      1.0000 0.98100  0.64230  0.75331  Biso   1.000  O
  H78      1.0000 0.06535  0.67981  0.71240  Biso   1.000  H
  C48      1.0000 0.16583  0.61990  0.71639  Biso   1.000  C
  H79      1.0000 0.56646  0.60111  0.76538  Biso   1.000  H
  H80      1.0000 0.65286  0.56260  0.74748  Biso   1.000  H
  H81      1.0000 0.53003  0.57561  0.72441  Biso   1.000  H
  C49      1.0000 0.89535  0.29778  0.71388  Biso   1.000  C
  H82      1.0000 0.76279  0.25501  0.73959  Biso   1.000  H
  C50      1.0000 0.72451  0.31940  0.75851  Biso   1.000  C
  C51      1.0000 0.95208  0.59491  0.76449  Biso   1.000  C
  C52      1.0000 0.14488  0.57058  0.72819  Biso   1.000  C
  H83      1.0000 0.22191  0.63380  0.73680  Biso   1.000  H
  O28      1.0000 0.22071  0.62361  0.67678  Biso   1.000  O
  C53      1.0000 0.98378  0.29971  0.75129  Biso   1.000  C
  H84      1.0000 0.89461  0.32800  0.70029  Biso   1.000  H
  O29      1.0000 0.94420  0.26389  0.68539  Biso   1.000  O
  H85      1.0000 0.72432  0.35020  0.74600  Biso   1.000  H
  C54      1.0000 0.59789  0.31031  0.77848  Biso   1.000  C
  O30      1.0000 0.80710  0.31929  0.79391  Biso   1.000  O
  C55      1.0000 0.07100  0.56780  0.76659  Biso   1.000  C
  H86      1.0000 0.90054  0.58170  0.74259  Biso   1.000  H
  C56      1.0000 0.87403  0.59901  0.80310  Biso   1.000  C
  H87      1.0000 0.10197  0.55451  0.70571  Biso   1.000  H
  O31      1.0000 0.26409  0.55169  0.73389  Biso   1.000  O
  C57      1.0000 0.33899  0.64702  0.67660  Biso   1.000  C
  C58      1.0000 0.92955  0.33061  0.78359  Biso   1.000  C
  H88      1.0000 0.98925  0.26860  0.76300  Biso   1.000  H
  O32      1.0000 0.10261  0.31299  0.73940  Biso   1.000  O
  C59      1.0000 0.96802  0.27851  0.64501  Biso   1.000  C
  H89      1.0000 0.58528  0.33130  0.80149  Biso   1.000  H
  H90      1.0000 0.53263  0.31551  0.75838  Biso   1.000  H
  O33      1.0000 0.59260  0.26540  0.79270  Biso   1.000  O
  O34      1.0000 0.04616  0.52041  0.77529  Biso   1.000  O
  H91      1.0000 0.12106  0.58029  0.78929  Biso   1.000  H
  H92      1.0000 0.81285  0.62310  0.79911  Biso   1.000  H
  H93      1.0000 0.83000  0.57041  0.80750  Biso   1.000  H
  O35      1.0000 0.94577  0.60930  0.83881  Biso   1.000  O
  C60      1.0000 0.27762  0.50881  0.71648  Biso   1.000  C
  H94      1.0000 0.37227  0.64691  0.64900  Biso   1.000  H
  H95      1.0000 0.39525  0.63139  0.69481  Biso   1.000  H
  H96      1.0000 0.32805  0.67820  0.68570  Biso   1.000  H
  O36      1.0000 0.94021  0.37769  0.77139  Biso   1.000  O
  H97      1.0000 0.97961  0.32679  0.80871  Biso   1.000  H
  C61      1.0000 0.18938  0.27769  0.73801  Biso   1.000  C
  H98      1.0000 0.89155  0.28849  0.63241  Biso   1.000  H
  H99      1.0000 0.00158  0.25339  0.62931  Biso   1.000  H
  H100     1.0000 0.02558  0.30350  0.64541  Biso   1.000  H
  C62      1.0000 0.48359  0.25590  0.81521  Biso   1.000  C
  C63      1.0000 0.02151  0.50640  0.81639  Biso   1.000  C
  C64      1.0000 0.97303  0.65799  0.84339  Biso   1.000  C
  H101     1.0000 0.36059  0.49800  0.72101  Biso   1.000  H
  H102     1.0000 0.26187  0.51060  0.68731  Biso   1.000  H
  H103     1.0000 0.21987  0.48778  0.72900  Biso   1.000  H
  C65      1.0000 0.95625  0.41259  0.80289  Biso   1.000  C
  H104     1.0000 0.26863  0.29001  0.73030  Biso   1.000  H
  H105     1.0000 0.16398  0.25521  0.71800  Biso   1.000  H
  H106     1.0000 0.19540  0.26361  0.76480  Biso   1.000  H
  H107     1.0000 0.48452  0.22441  0.82419  Biso   1.000  H
  H108     1.0000 0.41259  0.26110  0.79790  Biso   1.000  H
  H109     1.0000 0.47951  0.27569  0.83900  Biso   1.000  H
  O37      1.0000 0.90267  0.48992  0.82038  Biso   1.000  O
  C66      1.0000 0.11263  0.46920  0.82909  Biso   1.000  C
  H110     1.0000 0.03179  0.53300  0.83478  Biso   1.000  H
  H111     1.0000 0.89702  0.67499  0.84479  Biso   1.000  H
  H112     1.0000 0.01984  0.66281  0.86829  Biso   1.000  H
  H113     1.0000 0.02058  0.66828  0.82001  Biso   1.000  H
  H114     1.0000 0.93205  0.39989  0.82980  Biso   1.000  H
  C67      1.0000 0.87523  0.45340  0.79319  Biso   1.000  C
  C68      1.0000 0.09121  0.42512  0.80409  Biso   1.000  C
  H115     1.0000 0.09511  0.46170  0.85810  Biso   1.000  H
  O38      1.0000 0.23906  0.48190  0.82689  Biso   1.000  O
  H116     1.0000 0.88561  0.46301  0.76439  Biso   1.000  H
  C69      1.0000 0.73878  0.44108  0.80230  Biso   1.000  C
  H117     1.0000 0.11995  0.43021  0.77570  Biso   1.000  H
  O39      1.0000 0.15712  0.38719  0.82119  Biso   1.000  O
  C70      1.0000 0.27855  0.51439  0.85730  Biso   1.000  C
  H118     1.0000 0.71765  0.41159  0.79019  Biso   1.000  H
  H119     1.0000 0.72414  0.43960  0.83190  Biso   1.000  H
  O40      1.0000 0.66982  0.47560  0.78471  Biso   1.000  O
  C71      1.0000 0.27892  0.38110  0.80440  Biso   1.000  C
  H120     1.0000 0.36439  0.52172  0.85299  Biso   1.000  H
  H121     1.0000 0.26817  0.50141  0.88440  Biso   1.000  H
  H122     1.0000 0.22979  0.54192  0.85501  Biso   1.000  H
  C72      1.0000 0.55302  0.47639  0.80041  Biso   1.000  C
  H123     1.0000 0.31859  0.35560  0.81791  Biso   1.000  H
  H124     1.0000 0.32666  0.40849  0.80880  Biso   1.000  H
  H125     1.0000 0.27308  0.37501  0.77520  Biso   1.000  H
  H126     1.0000 0.50714  0.50120  0.78799  Biso   1.000  H
  H127     1.0000 0.55617  0.48069  0.82980  Biso   1.000  H
  H128     1.0000 0.51205  0.44779  0.79431  Biso   1.000  H
  C73      1.0000 0.22136  0.48561  0.35731  Biso   1.000  C
  O41      1.0000 0.26094  0.51810  0.32690  Biso   1.000  O
  H129     1.0000 0.13561  0.47828  0.35301  Biso   1.000  H
  H130     1.0000 0.23183  0.49859  0.38441  Biso   1.000  H
  H131     1.0000 0.27021  0.45808  0.35499  Biso   1.000  H
  C74      1.0000 0.38737  0.53080  0.32910  Biso   1.000  C
  C75      1.0000 0.47849  0.49360  0.31640  Biso   1.000  C
  H132     1.0000 0.40489  0.53830  0.35809  Biso   1.000  H
  C76      1.0000 0.40879  0.57488  0.30411  Biso   1.000  C
  O42      1.0000 0.45384  0.47959  0.27531  Biso   1.000  O
  H133     1.0000 0.46821  0.46700  0.33480  Biso   1.000  H
  O43      1.0000 0.59733  0.51008  0.32040  Biso   1.000  O
  H134     1.0000 0.37996  0.56979  0.27571  Biso   1.000  H
  C77      1.0000 0.54366  0.58741  0.30290  Biso   1.000  C
  O44      1.0000 0.34288  0.61281  0.32120  Biso   1.000  O
  C78      1.0000 0.42900  0.43220  0.26661  Biso   1.000  C
  C79      1.0000 0.62477  0.54660  0.29321  Biso   1.000  C
  H135     1.0000 0.56785  0.60011  0.32981  Biso   1.000  H
  O45      1.0000 0.55979  0.62231  0.27141  Biso   1.000  O
  C80      1.0000 0.22108  0.61890  0.30439  Biso   1.000  C
  C81      1.0000 0.35512  0.42942  0.22821  Biso   1.000  C
  C82      1.0000 0.54792  0.40509  0.26450  Biso   1.000  C
  H136     1.0000 0.37894  0.41971  0.28931  Biso   1.000  H
  H137     1.0000 0.61439  0.53699  0.26441  Biso   1.000  H
  C83      1.0000 0.76122  0.55892  0.30231  Biso   1.000  C
  C84      1.0000 0.57036  0.66939  0.28361  Biso   1.000  C
  H138     1.0000 0.18141  0.64440  0.31789  Biso   1.000  H
  H139     1.0000 0.17334  0.59151  0.30879  Biso   1.000  H
  H140     1.0000 0.22692  0.62499  0.27519  Biso   1.000  H
  C85      1.0000 0.33417  0.38010  0.21641  Biso   1.000  C
  H141     1.0000 0.39803  0.44549  0.20569  Biso   1.000  H
  O46      1.0000 0.23591  0.44831  0.23390  Biso   1.000  O
  O47      1.0000 0.51900  0.35770  0.25329  Biso   1.000  O
  H142     1.0000 0.59946  0.41830  0.24261  Biso   1.000  H
  C86      1.0000 0.62597  0.40099  0.30309  Biso   1.000  C
  H143     1.0000 0.78226  0.58841  0.29020  Biso   1.000  H
  H144     1.0000 0.77586  0.56040  0.33189  Biso   1.000  H
  O48      1.0000 0.83018  0.52440  0.28469  Biso   1.000  O
  H145     1.0000 0.52039  0.67321  0.30869  Biso   1.000  H
  C87      1.0000 0.51622  0.70029  0.25131  Biso   1.000  C
  O49      1.0000 0.69290  0.68071  0.29389  Biso   1.000  O
  C88      1.0000 0.45458  0.35281  0.21619  Biso   1.000  C
  H146     1.0000 0.27809  0.36620  0.23678  Biso   1.000  H
  O50      1.0000 0.27929  0.37639  0.17680  Biso   1.000  O
  C89      1.0000 0.22238  0.49119  0.21650  Biso   1.000  C
  H147     1.0000 0.68706  0.37690  0.29909  Biso   1.000  H
  H148     1.0000 0.67000  0.42959  0.30749  Biso   1.000  H
  O51      1.0000 0.55423  0.39070  0.33879  Biso   1.000  O
  C90      1.0000 0.94698  0.52361  0.30039  Biso   1.000  C
  H149     1.0000 0.51066  0.73140  0.26301  Biso   1.000  H
  C91      1.0000 0.60456  0.70222  0.21390  Biso   1.000  C
  O52      1.0000 0.39739  0.68701  0.23939  Biso   1.000  O
  C92      1.0000 0.77549  0.68060  0.25849  Biso   1.000  C
  O53      1.0000 0.53272  0.36751  0.18191  Biso   1.000  O
  H150     1.0000 0.43456  0.32019  0.21241  Biso   1.000  H
  C93      1.0000 0.16101  0.35298  0.17661  Biso   1.000  C
  H151     1.0000 0.13941  0.50200  0.22099  Biso   1.000  H
  H152     1.0000 0.23813  0.48940  0.18730  Biso   1.000  H
  H153     1.0000 0.28013  0.51222  0.22901  Biso   1.000  H
  C94      1.0000 0.52697  0.34201  0.34341  Biso   1.000  C
  H154     1.0000 0.99286  0.49880  0.28801  Biso   1.000  H
  H155     1.0000 0.94383  0.51931  0.32981  Biso   1.000  H
  H156     1.0000 0.98786  0.55221  0.29429  Biso   1.000  H
  H157     1.0000 0.60539  0.67200  0.20030  Biso   1.000  H
  C95      1.0000 0.73517  0.71392  0.22790  Biso   1.000  C
  O54      1.0000 0.55580  0.73611  0.18541  Biso   1.000  O
  C96      1.0000 0.31062  0.72231  0.23799  Biso   1.000  C
  H158     1.0000 0.77568  0.64980  0.24601  Biso   1.000  H
  C97      1.0000 0.90211  0.68969  0.27850  Biso   1.000  C
  C98      1.0000 0.62727  0.33581  0.16899  Biso   1.000  C
  H159     1.0000 0.12773  0.35309  0.14899  Biso   1.000  H
  H160     1.0000 0.10465  0.36861  0.19479  Biso   1.000  H
  H161     1.0000 0.17186  0.32180  0.18569  Biso   1.000  H
  H162     1.0000 0.48016  0.33719  0.36831  Biso   1.000  H
  H163     1.0000 0.60298  0.32501  0.34480  Biso   1.000  H
  H164     1.0000 0.47942  0.33172  0.32000  Biso   1.000  H
  H165     1.0000 0.73721  0.74499  0.23960  Biso   1.000  H
  O55      1.0000 0.80775  0.71230  0.18999  Biso   1.000  O
  C99      1.0000 0.53198  0.72149  0.14499  Biso   1.000  C
  H166     1.0000 0.23137  0.70999  0.23031  Biso   1.000  H
  H167     1.0000 0.33602  0.74479  0.21799  Biso   1.000  H
  H168     1.0000 0.30460  0.73639  0.26481  Biso   1.000  H
  H169     1.0000 0.91472  0.66870  0.30151  Biso   1.000  H
  H170     1.0000 0.96737  0.68449  0.25840  Biso   1.000  H
  O56      1.0000 0.90740  0.73460  0.29271  Biso   1.000  O
  C100     1.0000 0.57601  0.30209  0.13719  Biso   1.000  C
  H171     1.0000 0.65832  0.31881  0.19309  Biso   1.000  H
  C101     1.0000 0.73053  0.36489  0.15091  Biso   1.000  C
  C102     1.0000 0.91926  0.73780  0.19021  Biso   1.000  C
  H172     1.0000 0.49842  0.74661  0.12929  Biso   1.000  H
  H173     1.0000 0.47442  0.69650  0.14540  Biso   1.000  H
  H174     1.0000 0.60836  0.71151  0.13239  Biso   1.000  H
  C103     1.0000 0.01641  0.74410  0.31520  Biso   1.000  C
  C104     1.0000 0.68280  0.27541  0.11709  Biso   1.000  C
  H175     1.0000 0.53337  0.31971  0.11551  Biso   1.000  H
  O57      1.0000 0.48878  0.27259  0.15630  Biso   1.000  O
  H176     1.0000 0.69624  0.38251  0.12771  Biso   1.000  H
  C105     1.0000 0.79199  0.39841  0.17999  Biso   1.000  C
  O58      1.0000 0.82536  0.33440  0.13481  Biso   1.000  O
  H177     1.0000 0.93382  0.75129  0.21758  Biso   1.000  H
  C106     1.0000 0.91352  0.77569  0.15701  Biso   1.000  C
  O59      1.0000 0.01937  0.70831  0.17890  Biso   1.000  O
  H178     1.0000 0.01548  0.77559  0.32421  Biso   1.000  H
  H179     1.0000 0.08741  0.73890  0.29788  Biso   1.000  H
  H180     1.0000 0.02049  0.72431  0.33901  Biso   1.000  H
  C107     1.0000 0.78346  0.30560  0.10229  Biso   1.000  C
  H181     1.0000 0.71793  0.25511  0.13830  Biso   1.000  H
  O60      1.0000 0.62996  0.24761  0.08690  Biso   1.000  O
  C108     1.0000 0.38255  0.26320  0.13199  Biso   1.000  C
  H182     1.0000 0.86151  0.41269  0.16599  Biso   1.000  H
  H183     1.0000 0.73341  0.42240  0.18720  Biso   1.000  H
  O61      1.0000 0.83380  0.37749  0.21591  Biso   1.000  O
  H184     1.0000 0.99156  0.79290  0.15760  Biso   1.000  H
  C109     1.0000 0.89822  0.75580  0.11530  Biso   1.000  C
  O62      1.0000 0.81869  0.80511  0.16819  Biso   1.000  O
  C110     1.0000 0.00371  0.68621  0.13920  Biso   1.000  C
  H185     1.0000 0.85252  0.28660  0.09241  Biso   1.000  H
  O63      1.0000 0.73841  0.33240  0.06940  Biso   1.000  O
  C111     1.0000 0.67696  0.20280  0.08411  Biso   1.000  C
  H186     1.0000 0.32851  0.24289  0.14691  Biso   1.000  H
  H187     1.0000 0.40749  0.24898  0.10650  Biso   1.000  H
  H188     1.0000 0.33991  0.29149  0.12620  Biso   1.000  H
  C112     1.0000 0.90202  0.41269  0.24050  Biso   1.000  C
  H189     1.0000 0.81563  0.74200  0.11291  Biso   1.000  H
  C113     1.0000 0.99305  0.72159  0.10430  Biso   1.000  C
  O64      1.0000 0.91083  0.79231  0.08569  Biso   1.000  O
  C114     1.0000 0.85400  0.84971  0.17959  Biso   1.000  C
  H190     1.0000 0.92927  0.66680  0.13961  Biso   1.000  H
  C115     1.0000 0.11504  0.65689  0.13409  Biso   1.000  C
  C116     1.0000 0.80423  0.33141  0.03180  Biso   1.000  C
  H191     1.0000 0.63200  0.18601  0.06339  Biso   1.000  H
  H192     1.0000 0.66843  0.18769  0.11040  Biso   1.000  H
  H193     1.0000 0.76316  0.20401  0.07658  Biso   1.000  H
  H194     1.0000 0.93354  0.39889  0.26540  Biso   1.000  H
  H195     1.0000 0.84705  0.43740  0.24750  Biso   1.000  H
  H196     1.0000 0.96997  0.42439  0.22440  Biso   1.000  H
  O65      1.0000 0.95810  0.69809  0.06729  Biso   1.000  O
  H197     1.0000 0.07304  0.73691  0.10021  Biso   1.000  H
  C117     1.0000 0.79996  0.80811  0.07070  Biso   1.000  C
  H198     1.0000 0.78198  0.86740  0.18621  Biso   1.000  H
  H199     1.0000 0.89739  0.86389  0.15689  Biso   1.000  H
  H200     1.0000 0.90786  0.84830  0.20331  Biso   1.000  H
  H201     1.0000 0.11429  0.64330  0.10669  Biso   1.000  H
  H202     1.0000 0.18854  0.67599  0.13620  Biso   1.000  H
  O66      1.0000 0.12301  0.62158  0.16361  Biso   1.000  O
  H203     1.0000 0.83750  0.30050  0.02741  Biso   1.000  H
  C118     1.0000 0.90971  0.36620  0.02930  Biso   1.000  C
  C119     1.0000 0.70977  0.34180  0.99839  Biso   1.000  C
  C120     1.0000 0.04051  0.70211  0.03410  Biso   1.000  C
  H204     1.0000 0.81424  0.83309  0.05181  Biso   1.000  H
  H205     1.0000 0.74917  0.81871  0.09331  Biso   1.000  H
  H206     1.0000 0.75751  0.78371  0.05649  Biso   1.000  H
  C121     1.0000 0.03699  0.58500  0.17500  Biso   1.000  C
  H207     1.0000 0.87532  0.39659  0.03580  Biso   1.000  H
  O67      1.0000 0.96292  0.36850  0.98870  Biso   1.000  O
  C122     1.0000 0.01316  0.35660  0.06011  Biso   1.000  C
  H208     1.0000 0.66240  0.36930  0.00591  Biso   1.000  H
  C123     1.0000 0.77030  0.34872  0.95599  Biso   1.000  C
  O68      1.0000 0.62671  0.30329  0.99291  Biso   1.000  O
  C124     1.0000 0.96997  0.70910  0.99269  Biso   1.000  C
  O69      1.0000 0.11392  0.66130  0.03159  Biso   1.000  O
  H209     1.0000 0.09511  0.72861  0.03890  Biso   1.000  H
  H210     1.0000 0.96107  0.59880  0.18470  Biso   1.000  H
  H211     1.0000 0.07267  0.56690  0.19649  Biso   1.000  H
  H212     1.0000 0.02021  0.56649  0.15119  Biso   1.000  H
  C125     1.0000 0.87783  0.38409  0.95869  Biso   1.000  C
  H213     1.0000 0.98304  0.36111  0.08811  Biso   1.000  H
  H214     1.0000 0.08129  0.37780  0.05550  Biso   1.000  H
  O70      1.0000 0.05497  0.31069  0.05519  Biso   1.000  O
  H215     1.0000 0.80376  0.31909  0.94649  Biso   1.000  H
  O71      1.0000 0.68196  0.36300  0.92871  Biso   1.000  O
  C126     1.0000 0.50463  0.30959  0.00539  Biso   1.000  C
  C127     1.0000 0.90369  0.66711  0.97990  Biso   1.000  C
  O72      1.0000 0.89349  0.74640  0.99260  Biso   1.000  O
  H216     1.0000 0.03337  0.71491  0.97151  Biso   1.000  H
  C128     1.0000 0.05080  0.61979  0.02320  Biso   1.000  C
  O73      1.0000 0.83139  0.42728  0.96810  Biso   1.000  O
  H217     1.0000 0.91973  0.38550  0.93181  Biso   1.000  H
  C129     1.0000 0.18233  0.29679  0.04809  Biso   1.000  C
  C130     1.0000 0.66898  0.34469  0.89009  Biso   1.000  C
  H218     1.0000 0.50250  0.31599  0.03459  Biso   1.000  H
  H219     1.0000 0.45801  0.28209  0.99991  Biso   1.000  H
  H220     1.0000 0.46885  0.33492  0.99049  Biso   1.000  H
  C131     1.0000 0.97961  0.62489  0.97959  Biso   1.000  C
  H221     1.0000 0.83222  0.66240  0.99820  Biso   1.000  H
  O74      1.0000 0.86142  0.67169  0.93850  Biso   1.000  O
  C132     1.0000 0.94401  0.78718  0.97581  Biso   1.000  C
  H222     1.0000 0.98517  0.61801  0.04419  Biso   1.000  H
  C133     1.0000 0.14396  0.58390  0.03549  Biso   1.000  C
  C134     1.0000 0.86911  0.46521  0.94389  Biso   1.000  C
  H223     1.0000 0.18530  0.26440  0.04261  Biso   1.000  H
  H224     1.0000 0.23118  0.30370  0.07209  Biso   1.000  H
  H225     1.0000 0.21478  0.31330  0.02471  Biso   1.000  H
  H226     1.0000 0.60085  0.35938  0.87619  Biso   1.000  H
  H227     1.0000 0.65258  0.31231  0.89238  Biso   1.000  H
  H228     1.0000 0.74360  0.34951  0.87461  Biso   1.000  H
  O75      1.0000 0.90378  0.58280  0.97430  Biso   1.000  O
  H229     1.0000 0.04060  0.62688  0.95720  Biso   1.000  H
  C135     1.0000 0.73897  0.68900  0.93509  Biso   1.000  C
  H230     1.0000 0.88265  0.81131  0.97711  Biso   1.000  H
  H231     1.0000 0.96672  0.78209  0.94751  Biso   1.000  H
  H232     1.0000 0.01539  0.79610  0.99151  Biso   1.000  H
  O76      1.0000 0.20300  0.58669  0.99762  Biso   1.000  O
  H233     1.0000 0.19568  0.59309  0.05850  Biso   1.000  H
  H234     1.0000 0.10669  0.55400  0.04060  Biso   1.000  H
  C136     1.0000 0.76474  0.49880  0.94200  Biso   1.000  C
  H235     1.0000 0.88895  0.45471  0.91589  Biso   1.000  H
  C137     1.0000 0.97933  0.49009  0.96179  Biso   1.000  C
  C138     1.0000 0.91741  0.56312  0.93540  Biso   1.000  C
  H236     1.0000 0.71635  0.69079  0.90641  Biso   1.000  H
  H237     1.0000 0.73517  0.71911  0.94720  Biso   1.000  H
  H238     1.0000 0.68298  0.66880  0.94930  Biso   1.000  H
  C139     1.0000 0.33000  0.57371  0.99000  Biso   1.000  C
  C140     1.0000 0.79737  0.54381  0.92131  Biso   1.000  C
  H239     1.0000 0.73730  0.50540  0.97030  Biso   1.000  H
  O77      1.0000 0.66157  0.47959  0.91930  Biso   1.000  O
  H240     1.0000 0.95588  0.50241  0.98901  Biso   1.000  H
  C141     1.0000 0.09585  0.46201  0.96689  Biso   1.000  C
  O78      1.0000 0.00973  0.52791  0.93521  Biso   1.000  O
  H241     1.0000 0.94271  0.58720  0.91601  Biso   1.000  H
  H242     1.0000 0.36114  0.58999  0.96640  Biso   1.000  H
  H243     1.0000 0.33472  0.54119  0.98501  Biso   1.000  H
  H244     1.0000 0.37959  0.58111  0.01390  Biso   1.000  H
  H245     1.0000 0.80766  0.53689  0.89180  Biso   1.000  H
  O79      1.0000 0.69920  0.57599  0.92391  Biso   1.000  O
  C142     1.0000 0.55441  0.46548  0.94101  Biso   1.000  C
  H246     1.0000 0.16416  0.48210  0.97439  Biso   1.000  H
  H247     1.0000 0.08463  0.43991  0.98910  Biso   1.000  H
  O80      1.0000 0.12366  0.43919  0.93060  Biso   1.000  O
  C143     1.0000 0.62699  0.58332  0.88839  Biso   1.000  C
  H248     1.0000 0.49527  0.45299  0.92180  Biso   1.000  H
  H249     1.0000 0.51863  0.49150  0.95491  Biso   1.000  H
  H250     1.0000 0.57629  0.44239  0.96089  Biso   1.000  H
  C144     1.0000 0.23545  0.41321  0.93320  Biso   1.000  C
  H251     1.0000 0.56313  0.60551  0.89440  Biso   1.000  H
  H252     1.0000 0.58899  0.55479  0.88009  Biso   1.000  H
  H253     1.0000 0.67807  0.59460  0.86640  Biso   1.000  H
  H254     1.0000 0.25111  0.39841  0.90719  Biso   1.000  H
  H255     1.0000 0.22757  0.39039  0.95451  Biso   1.000  H
  H256     1.0000 0.30321  0.43341  0.93970  Biso   1.000  H
  C145     1.0000 0.20004  0.30811  0.42928  Biso   1.000  C
  O81      1.0000 0.08917  0.29231  0.41430  Biso   1.000  O
  H257     1.0000 0.18576  0.33309  0.44821  Biso   1.000  H
  H258     1.0000 0.25083  0.31871  0.40671  Biso   1.000  H
  H259     1.0000 0.24249  0.28371  0.44350  Biso   1.000  H
  C146     1.0000 0.10178  0.25580  0.38469  Biso   1.000  C
  C147     1.0000 0.08648  0.27569  0.34301  Biso   1.000  C
  H260     1.0000 0.18437  0.24200  0.38710  Biso   1.000  H
  C148     1.0000 0.00686  0.22159  0.39571  Biso   1.000  C
  C149     1.0000 0.08074  0.23780  0.30981  Biso   1.000  C
  H261     1.0000 0.00844  0.29290  0.34239  Biso   1.000  H
  O82      1.0000 0.18131  0.30511  0.33180  Biso   1.000  O
  C150     1.0000 0.99629  0.18621  0.36081  Biso   1.000  C
  O83      1.0000 0.04190  0.19809  0.43269  Biso   1.000  O
  H262     1.0000 0.92686  0.23691  0.39980  Biso   1.000  H
  O84      1.0000 0.19216  0.21230  0.30999  Biso   1.000  O
  H263     1.0000 0.06618  0.25129  0.28240  Biso   1.000  H
  O85      1.0000 0.98063  0.20831  0.32111  Biso   1.000  O
  C151     1.0000 0.14600  0.34971  0.32040  Biso   1.000  C
  H264     1.0000 0.07073  0.16680  0.36041  Biso   1.000  H
  C152     1.0000 0.88496  0.15689  0.36589  Biso   1.000  C
  C153     1.0000 0.95949  0.20211  0.46589  Biso   1.000  C
  C154     1.0000 0.26483  0.21392  0.27209  Biso   1.000  C
  H265     1.0000 0.21802  0.36740  0.31380  Biso   1.000  H
  H266     1.0000 0.10261  0.36389  0.34310  Biso   1.000  H
  H267     1.0000 0.09214  0.34830  0.29671  Biso   1.000  H
  H268     1.0000 0.88571  0.14330  0.39330  Biso   1.000  H
  H269     1.0000 0.81136  0.17599  0.36379  Biso   1.000  H
  O86      1.0000 0.87699  0.12158  0.33641  Biso   1.000  O
  C155     1.0000 0.03003  0.20910  0.50729  Biso   1.000  C
  H270     1.0000 0.90489  0.22861  0.46109  Biso   1.000  H
  O87      1.0000 0.88608  0.16130  0.46840  Biso   1.000  O
  C156     1.0000 0.39544  0.20222  0.28609  Biso   1.000  C
  H271     1.0000 0.26279  0.24499  0.26041  Biso   1.000  H
  C157     1.0000 0.22451  0.18060  0.24149  Biso   1.000  C
  C158     1.0000 0.96301  0.08500  0.32501  Biso   1.000  C
  C159     1.0000 0.09631  0.16711  0.52008  Biso   1.000  C
  O88      1.0000 0.10651  0.24640  0.50739  Biso   1.000  O
  H272     1.0000 0.96663  0.21491  0.52851  Biso   1.000  H
  C160     1.0000 0.94920  0.11979  0.47679  Biso   1.000  C
  C161     1.0000 0.48378  0.20029  0.24871  Biso   1.000  C
  H273     1.0000 0.39461  0.17200  0.29971  Biso   1.000  H
  O89      1.0000 0.44420  0.23611  0.31461  Biso   1.000  O
  H274     1.0000 0.22432  0.14980  0.25400  Biso   1.000  H
  C162     1.0000 0.09789  0.18969  0.22149  Biso   1.000  C
  O90      1.0000 0.30710  0.18071  0.20609  Biso   1.000  O
  H275     1.0000 0.03893  0.09880  0.31529  Biso   1.000  H
  H276     1.0000 0.92733  0.06690  0.30349  Biso   1.000  H
  H277     1.0000 0.97979  0.06649  0.34880  Biso   1.000  H
  H278     1.0000 0.16778  0.16240  0.50181  Biso   1.000  H
  C163     1.0000 0.02039  0.12489  0.52039  Biso   1.000  C
  O91      1.0000 0.13858  0.17169  0.56149  Biso   1.000  O
  C164     1.0000 0.05599  0.28718  0.52420  Biso   1.000  C
  H279     1.0000 0.01483  0.11801  0.45579  Biso   1.000  H
  C165     1.0000 0.85604  0.08390  0.46449  Biso   1.000  C
  C166     1.0000 0.42955  0.16939  0.21641  Biso   1.000  C
  H280     1.0000 0.48934  0.23140  0.23700  Biso   1.000  H
  O92      1.0000 0.60261  0.18701  0.26060  Biso   1.000  O
  C167     1.0000 0.46802  0.22149  0.35499  Biso   1.000  C
  H281     1.0000 0.08528  0.16870  0.19851  Biso   1.000  H
  H282     1.0000 0.03263  0.18449  0.24158  Biso   1.000  H
  O93      1.0000 0.09260  0.23460  0.20730  Biso   1.000  O
  O94      1.0000 0.09622  0.08280  0.52569  Biso   1.000  O
  H283     1.0000 0.95940  0.12688  0.54281  Biso   1.000  H
  C168     1.0000 0.26103  0.18900  0.56489  Biso   1.000  C
  H284     1.0000 0.11726  0.31131  0.52290  Biso   1.000  H
  H285     1.0000 0.03328  0.28209  0.55251  Biso   1.000  H
  H286     1.0000 0.98461  0.29610  0.50850  Biso   1.000  H
  H287     1.0000 0.80432  0.09309  0.44149  Biso   1.000  H
  H288     1.0000 0.89331  0.05400  0.45938  Biso   1.000  H
  O95      1.0000 0.79700  0.08669  0.50240  Biso   1.000  O
  O96      1.0000 0.44021  0.12231  0.22861  Biso   1.000  O
  H289     1.0000 0.47961  0.17321  0.19129  Biso   1.000  H
  C169     1.0000 0.68938  0.22231  0.26199  Biso   1.000  C
  H290     1.0000 0.50158  0.24661  0.37069  Biso   1.000  H
  H291     1.0000 0.52558  0.19650  0.35459  Biso   1.000  H
  H292     1.0000 0.39164  0.21151  0.36759  Biso   1.000  H
  C170     1.0000 0.98359  0.24410  0.18479  Biso   1.000  C
  C171     1.0000 0.08259  0.06312  0.56458  Biso   1.000  C
  H293     1.0000 0.28356  0.19079  0.59360  Biso   1.000  H
  H294     1.0000 0.26483  0.21911  0.55279  Biso   1.000  H
  H295     1.0000 0.31702  0.16880  0.55071  Biso   1.000  H
  C172     1.0000 0.67000  0.07371  0.50999  Biso   1.000  C
  C173     1.0000 0.45634  0.08741  0.19711  Biso   1.000  C
  H296     1.0000 0.76863  0.20999  0.26970  Biso   1.000  H
  H297     1.0000 0.66398  0.24479  0.28200  Biso   1.000  H
  H298     1.0000 0.69540  0.23639  0.23520  Biso   1.000  H
  H299     1.0000 0.98452  0.27559  0.17581  Biso   1.000  H
  H300     1.0000 0.91259  0.23890  0.20210  Biso   1.000  H
  H301     1.0000 0.97951  0.22431  0.16100  Biso   1.000  H
  H302     1.0000 0.05729  0.08720  0.58400  Biso   1.000  H
  C174     1.0000 0.20263  0.04381  0.57871  Biso   1.000  C
  O97      1.0000 0.99027  0.02791  0.56480  Biso   1.000  O
  H303     1.0000 0.63877  0.08999  0.53359  Biso   1.000  H
  H304     1.0000 0.66528  0.04119  0.51500  Biso   1.000  H
  H305     1.0000 0.62041  0.08111  0.48611  Biso   1.000  H
  C175     1.0000 0.59121  0.07488  0.19591  Biso   1.000  C
  H306     1.0000 0.43205  0.10011  0.17020  Biso   1.000  H
  C176     1.0000 0.37523  0.04660  0.20681  Biso   1.000  C
  H307     1.0000 0.19234  0.03689  0.60819  Biso   1.000  H
  O98      1.0000 0.30080  0.07599  0.57610  Biso   1.000  O
  C177     1.0000 0.23526  0.99880  0.55799  Biso   1.000  C
  C178     1.0000 0.02067  0.99009  0.53820  Biso   1.000  C
  C179     1.0000 0.61263  0.03080  0.17091  Biso   1.000  C
  H308     1.0000 0.61995  0.06979  0.22430  Biso   1.000  H
  O99      1.0000 0.65712  0.11281  0.17881  Biso   1.000  O
  H309     1.0000 0.38561  0.03699  0.23561  Biso   1.000  H
  C180     1.0000 0.23878  0.05892  0.19770  Biso   1.000  C
  O100     1.0000 0.40267  0.01008  0.17959  Biso   1.000  O
  C181     1.0000 0.37301  0.08332  0.61159  Biso   1.000  C
  H310     1.0000 0.26270  0.00540  0.52968  Biso   1.000  H
  C182     1.0000 0.13089  0.96521  0.55610  Biso   1.000  C
  O101     1.0000 0.33843  0.97959  0.58069  Biso   1.000  O
  H311     1.0000 0.04412  0.00241  0.51101  Biso   1.000  H
  C183     1.0000 0.90406  0.96201  0.53309  Biso   1.000  C
  H312     1.0000 0.59511  0.03830  0.14190  Biso   1.000  H
  O102     1.0000 0.73906  0.01810  0.17311  Biso   1.000  O
  C184     1.0000 0.52151  0.99360  0.18361  Biso   1.000  C
  C185     1.0000 0.77892  0.11890  0.19560  Biso   1.000  C
  H313     1.0000 0.21774  0.08841  0.20981  Biso   1.000  H
  H314     1.0000 0.22414  0.06040  0.16810  Biso   1.000  H
  O103     1.0000 0.16982  0.02440  0.21529  Biso   1.000  O
  H315     1.0000 0.43687  0.10551  0.60559  Biso   1.000  H
  H316     1.0000 0.41101  0.05479  0.61989  Biso   1.000  H
  H317     1.0000 0.32193  0.09460  0.63361  Biso   1.000  H
  H318     1.0000 0.11096  0.95471  0.58409  Biso   1.000  H
  O104     1.0000 0.16861  0.92728  0.53191  Biso   1.000  O
  C186     1.0000 0.44559  0.96548  0.55901  Biso   1.000  C
  H319     1.0000 0.83584  0.98210  0.52560  Biso   1.000  H
  H320     1.0000 0.91537  0.93991  0.51089  Biso   1.000  H
  O105     1.0000 0.87634  0.93919  0.56938  Biso   1.000  O
  C187     1.0000 0.77855  0.98561  0.14270  Biso   1.000  C
  O106     1.0000 0.54616  0.97959  0.22471  Biso   1.000  O
  H321     1.0000 0.53179  0.96700  0.16519  Biso   1.000  H
  H322     1.0000 0.81859  0.14440  0.18209  Biso   1.000  H
  H323     1.0000 0.82666  0.09151  0.19120  Biso   1.000  H
  H324     1.0000 0.77308  0.12499  0.22480  Biso   1.000  H
  C188     1.0000 0.05302  0.02361  0.19959  Biso   1.000  C
  C189     1.0000 0.12217  0.88409  0.54130  Biso   1.000  C
  H325     1.0000 0.50473  0.95299  0.57821  Biso   1.000  H
  H326     1.0000 0.48137  0.99150  0.54511  Biso   1.000  H
  H327     1.0000 0.42371  0.94239  0.53910  Biso   1.000  H
  C190     1.0000 0.76446  0.91321  0.56678  Biso   1.000  C
  H328     1.0000 0.86439  0.97828  0.14701  Biso   1.000  H
  H329     1.0000 0.76817  0.99859  0.11560  Biso   1.000  H
  H330     1.0000 0.72979  0.95808  0.14499  Biso   1.000  H
  C191     1.0000 0.57100  0.93220  0.23341  Biso   1.000  C
  H331     1.0000 0.05617  0.01931  0.17020  Biso   1.000  H
  H332     1.0000 0.01214  0.05221  0.20569  Biso   1.000  H
  H333     1.0000 0.00714  0.99880  0.21201  Biso   1.000  H
  H334     1.0000 0.08027  0.88550  0.56821  Biso   1.000  H
  C192     1.0000 0.22970  0.84872  0.54399  Biso   1.000  C
  O107     1.0000 0.03708  0.86850  0.51129  Biso   1.000  O
  H335     1.0000 0.74889  0.89841  0.59280  Biso   1.000  H
  H336     1.0000 0.77243  0.89039  0.54551  Biso   1.000  H
  H337     1.0000 0.69679  0.93341  0.56031  Biso   1.000  H
  C193     1.0000 0.64488  0.92942  0.27181  Biso   1.000  C
  H338     1.0000 0.62106  0.91971  0.21071  Biso   1.000  H
  C194     1.0000 0.45208  0.90509  0.23551  Biso   1.000  C
  H339     1.0000 0.19624  0.81909  0.55350  Biso   1.000  H
  C195     1.0000 0.29023  0.84180  0.50159  Biso   1.000  C
  O108     1.0000 0.31804  0.86300  0.57130  Biso   1.000  O
  C196     1.0000 0.09029  0.86620  0.47069  Biso   1.000  C
  C197     1.0000 0.66583  0.88010  0.28361  Biso   1.000  C
  H340     1.0000 0.60197  0.94549  0.29429  Biso   1.000  H
  O109     1.0000 0.76409  0.94831  0.26611  Biso   1.000  O
  H341     1.0000 0.40054  0.91830  0.25741  Biso   1.000  H
  C198     1.0000 0.37403  0.90099  0.19690  Biso   1.000  C
  O110     1.0000 0.48100  0.85770  0.24669  Biso   1.000  O
  C199     1.0000 0.19577  0.83141  0.46821  Biso   1.000  C
  H342     1.0000 0.33760  0.86930  0.49410  Biso   1.000  H
  O111     1.0000 0.37329  0.80329  0.50711  Biso   1.000  O
  C200     1.0000 0.33102  0.84469  0.60989  Biso   1.000  C
  C201     1.0000 0.98684  0.85660  0.43991  Biso   1.000  C
  H343     1.0000 0.12468  0.89659  0.46419  Biso   1.000  H
  C202     1.0000 0.54542  0.85281  0.28379  Biso   1.000  C
  H344     1.0000 0.72191  0.86620  0.26320  Biso   1.000  H
  O112     1.0000 0.72071  0.87639  0.32319  Biso   1.000  O
  C203     1.0000 0.77762  0.99119  0.28348  Biso   1.000  C
  H345     1.0000 0.31294  0.87690  0.20089  Biso   1.000  H
  H346     1.0000 0.33000  0.92959  0.19250  Biso   1.000  H
  O113     1.0000 0.44577  0.89070  0.16119  Biso   1.000  O
  O114     1.0000 0.26159  0.83240  0.43058  Biso   1.000  O
  H347     1.0000 0.16250  0.80050  0.47261  Biso   1.000  H
  C204     1.0000 0.49537  0.80959  0.49460  Biso   1.000  C
  H348     1.0000 0.39905  0.85938  0.62380  Biso   1.000  H
  H349     1.0000 0.34742  0.81231  0.60760  Biso   1.000  H
  H350     1.0000 0.25640  0.84951  0.62541  Biso   1.000  H
  H351     1.0000 0.91871  0.87780  0.44449  Biso   1.000  H
  O115     1.0000 0.94503  0.81069  0.44480  Biso   1.000  O
  H352     1.0000 0.01696  0.86111  0.41191  Biso   1.000  H
  O116     1.0000 0.46728  0.86751  0.31811  Biso   1.000  O
  H353     1.0000 0.56535  0.82019  0.28760  Biso   1.000  H
  C205     1.0000 0.83899  0.85298  0.32340  Biso   1.000  C
  H354     1.0000 0.86059  0.00200  0.27899  Biso   1.000  H
  H355     1.0000 0.71987  0.01222  0.27100  Biso   1.000  H
  H356     1.0000 0.76187  0.98940  0.31269  Biso   1.000  H
  C206     1.0000 0.47303  0.84201  0.15661  Biso   1.000  C
  C207     1.0000 0.21654  0.80560  0.39770  Biso   1.000  C
  H357     1.0000 0.54199  0.78209  0.50011  Biso   1.000  H
  H358     1.0000 0.53105  0.83492  0.50949  Biso   1.000  H
  H359     1.0000 0.49750  0.81599  0.46539  Biso   1.000  H
  C208     1.0000 0.81767  0.79679  0.45189  Biso   1.000  C
  C209     1.0000 0.37273  0.83581  0.33099  Biso   1.000  C
  H360     1.0000 0.87227  0.85309  0.35100  Biso   1.000  H
  H361     1.0000 0.89525  0.86861  0.30519  Biso   1.000  H
  H362     1.0000 0.82805  0.82180  0.31430  Biso   1.000  H
  H363     1.0000 0.51984  0.83719  0.13171  Biso   1.000  H
  H364     1.0000 0.39702  0.82501  0.15521  Biso   1.000  H
  H365     1.0000 0.52058  0.83172  0.17999  Biso   1.000  H
  C210     1.0000 0.31720  0.77541  0.38289  Biso   1.000  C
  O117     1.0000 0.17464  0.83440  0.36521  Biso   1.000  O
  H366     1.0000 0.14748  0.78660  0.40761  Biso   1.000  H
  H367     1.0000 0.81470  0.76440  0.45740  Biso   1.000  H
  H368     1.0000 0.76882  0.80370  0.42789  Biso   1.000  H
  H369     1.0000 0.78522  0.81330  0.47530  Biso   1.000  H
  C211     1.0000 0.42399  0.80209  0.36279  Biso   1.000  C
  H370     1.0000 0.34168  0.81881  0.30690  Biso   1.000  H
  C212     1.0000 0.26947  0.86489  0.34911  Biso   1.000  C
  H371     1.0000 0.28207  0.75511  0.36171  Biso   1.000  H
  O118     1.0000 0.37004  0.74761  0.41309  Biso   1.000  O
  H372     1.0000 0.46663  0.81971  0.38450  Biso   1.000  H
  O119     1.0000 0.51122  0.77259  0.34369  Biso   1.000  O
  H373     1.0000 0.30376  0.88251  0.37230  Biso   1.000  H
  C213     1.0000 0.20801  0.89841  0.32000  Biso   1.000  C
  C214     1.0000 0.32295  0.70280  0.41591  Biso   1.000  C
  C215     1.0000 0.61735  0.76320  0.36800  Biso   1.000  C
  H374     1.0000 0.13849  0.91269  0.33399  Biso   1.000  H
  H375     1.0000 0.26659  0.92240  0.31281  Biso   1.000  H
  O120     1.0000 0.16620  0.87749  0.28410  Biso   1.000  O
  H376     1.0000 0.36800  0.68601  0.43659  Biso   1.000  H
  H377     1.0000 0.33157  0.68769  0.38961  Biso   1.000  H
  H378     1.0000 0.23684  0.70401  0.42340  Biso   1.000  H
  H379     1.0000 0.67149  0.74289  0.35310  Biso   1.000  H
  H380     1.0000 0.59251  0.74898  0.39348  Biso   1.000  H
  H381     1.0000 0.66009  0.79149  0.37379  Biso   1.000  H
  C216     1.0000 0.09798  0.91269  0.25948  Biso   1.000  C
  H382     1.0000 0.06646  0.89889  0.23459  Biso   1.000  H
  H383     1.0000 0.15286  0.93740  0.25249  Biso   1.000  H
  H384     1.0000 0.03003  0.92439  0.27559  Biso   1.000  H
  C217     1.0000 0.51641  0.75590  0.68480  Biso   1.000  C
  H385     1.0000 0.51548  0.72441  0.67579  Biso   1.000  H
  H386     1.0000 0.58741  0.76110  0.70208  Biso   1.000  H
  H387     1.0000 0.52049  0.77569  0.66099  Biso   1.000  H
  O121     1.0000 0.40740  0.76540  0.70729  Biso   1.000  O
  C218     1.0000 0.40211  0.81031  0.72150  Biso   1.000  C
  C219     1.0000 0.27549  0.81940  0.74151  Biso   1.000  C
  H388     1.0000 0.41472  0.83130  0.69849  Biso   1.000  H
  H389     1.0000 0.46737  0.81551  0.74160  Biso   1.000  H
  C220     1.0000 0.23517  0.78608  0.77210  Biso   1.000  C
  H390     1.0000 0.27568  0.85020  0.75399  Biso   1.000  H
  O122     1.0000 0.19290  0.81929  0.70611  Biso   1.000  O
  C221     1.0000 0.10456  0.79778  0.78610  Biso   1.000  C
  H391     1.0000 0.23721  0.75501  0.76040  Biso   1.000  H
  O123     1.0000 0.30784  0.78770  0.81001  Biso   1.000  O
  C222     1.0000 0.07036  0.83061  0.71639  Biso   1.000  C
  C223     1.0000 0.01622  0.79971  0.74869  Biso   1.000  C
  H392     1.0000 0.10539  0.82800  0.79970  Biso   1.000  H
  O124     1.0000 0.05580  0.76389  0.81459  Biso   1.000  O
  C224     1.0000 0.41926  0.76220  0.80979  Biso   1.000  C
  O125     1.0000 0.05979  0.87769  0.72859  Biso   1.000  O
  H393     1.0000 0.02039  0.82679  0.69131  Biso   1.000  H
  H394     1.0000 0.01066  0.76860  0.73699  Biso   1.000  H
  O126     1.0000 0.89739  0.81299  0.76058  Biso   1.000  O
  C225     1.0000 0.03198  0.77851  0.85501  Biso   1.000  C
  H395     1.0000 0.43382  0.74871  0.78239  Biso   1.000  H
  C226     1.0000 0.41352  0.72431  0.84299  Biso   1.000  C
  O127     1.0000 0.51937  0.79169  0.82110  Biso   1.000  O
  C227     1.0000 0.04366  0.91259  0.69710  Biso   1.000  C
  C228     1.0000 0.81062  0.77769  0.76201  Biso   1.000  C
  H396     1.0000 0.10836  0.78849  0.86761  Biso   1.000  H
  H397     1.0000 0.99842  0.75339  0.87071  Biso   1.000  H
  H398     1.0000 0.97442  0.80350  0.85460  Biso   1.000  H
  H399     1.0000 0.49156  0.70710  0.84240  Biso   1.000  H
  C229     1.0000 0.39822  0.74420  0.88470  Biso   1.000  C
  O128     1.0000 0.31869  0.69489  0.83181  Biso   1.000  O
  C230     1.0000 0.50371  0.81379  0.86080  Biso   1.000  C
  H400     1.0000 0.06785  0.89989  0.67019  Biso   1.000  H
  C231     1.0000 0.12477  0.95340  0.70679  Biso   1.000  C
  C232     1.0000 0.90879  0.92512  0.69589  Biso   1.000  C
  H401     1.0000 0.73137  0.79001  0.76969  Biso   1.000  H
  H402     1.0000 0.83602  0.75521  0.78198  Biso   1.000  H
  H403     1.0000 0.80460  0.76361  0.73519  Biso   1.000  H
  H404     1.0000 0.31563  0.75800  0.88709  Biso   1.000  H
  C233     1.0000 0.49314  0.77841  0.89570  Biso   1.000  C
  O129     1.0000 0.41083  0.70769  0.91431  Biso   1.000  O
  C234     1.0000 0.35400  0.65029  0.82038  Biso   1.000  C
  H405     1.0000 0.42927  0.83320  0.86039  Biso   1.000  H
  C235     1.0000 0.61504  0.84311  0.86591  Biso   1.000  C
  H406     1.0000 0.11439  0.96301  0.73559  Biso   1.000  H
  C236     1.0000 0.26122  0.94108  0.69769  Biso   1.000  C
  O130     1.0000 0.09733  0.98992  0.67960  Biso   1.000  O
  C237     1.0000 0.88737  0.96920  0.67090  Biso   1.000  C
  H407     1.0000 0.87996  0.93021  0.72429  Biso   1.000  H
  O131     1.0000 0.84288  0.88719  0.67880  Biso   1.000  O
  H408     1.0000 0.57314  0.76309  0.89979  Biso   1.000  H
  O132     1.0000 0.45810  0.80191  0.93271  Biso   1.000  O
  C238     1.0000 0.29996  0.69189  0.92930  Biso   1.000  C
  H409     1.0000 0.28198  0.63260  0.81379  Biso   1.000  H
  H410     1.0000 0.39739  0.63611  0.84308  Biso   1.000  H
  H411     1.0000 0.40786  0.65170  0.79669  Biso   1.000  H
  H412     1.0000 0.61429  0.85670  0.89328  Biso   1.000  H
  H413     1.0000 0.68864  0.82401  0.86380  Biso   1.000  H
  O133     1.0000 0.62301  0.87842  0.83639  Biso   1.000  O
  H414     1.0000 0.28226  0.91159  0.70980  Biso   1.000  H
  H415     1.0000 0.27586  0.93960  0.66811  Biso   1.000  H
  O134     1.0000 0.33018  0.97560  0.71531  Biso   1.000  O
  C239     1.0000 0.97849  0.00640  0.68360  Biso   1.000  C
  H416     1.0000 0.90489  0.96170  0.64191  Biso   1.000  H
  O135     1.0000 0.76094  0.98190  0.67310  Biso   1.000  O
  C240     1.0000 0.72108  0.88110  0.69561  Biso   1.000  C
  C241     1.0000 0.54051  0.79789  0.96590  Biso   1.000  C
  H417     1.0000 0.31424  0.66691  0.94819  Biso   1.000  H
  H418     1.0000 0.24917  0.68129  0.90669  Biso   1.000  H
  H419     1.0000 0.25751  0.71629  0.94348  Biso   1.000  H
  C242     1.0000 0.53699  0.91500  0.82500  Biso   1.000  C
  C243     1.0000 0.44698  0.97639  0.69961  Biso   1.000  C
  O136     1.0000 0.95384  0.02041  0.72469  Biso   1.000  O
  H420     1.0000 0.96821  0.03300  0.66520  Biso   1.000  H
  C244     1.0000 0.72136  0.01439  0.64269  Biso   1.000  C
  H421     1.0000 0.68141  0.85560  0.68211  Biso   1.000  H
  H422     1.0000 0.67334  0.90849  0.69118  Biso   1.000  H
  H423     1.0000 0.72692  0.87501  0.72478  Biso   1.000  H
  H424     1.0000 0.59511  0.77139  0.96110  Biso   1.000  H
  O137     1.0000 0.61392  0.83870  0.96841  Biso   1.000  O
  C245     1.0000 0.46997  0.79090  0.00731  Biso   1.000  C
  H425     1.0000 0.57267  0.93310  0.80351  Biso   1.000  H
  H426     1.0000 0.52021  0.93351  0.84881  Biso   1.000  H
  H427     1.0000 0.46107  0.90120  0.81530  Biso   1.000  H
  H428     1.0000 0.44383  0.98069  0.67019  Biso   1.000  H
  H429     1.0000 0.48786  0.94779  0.70571  Biso   1.000  H
  H430     1.0000 0.49286  0.00120  0.71199  Biso   1.000  H
  C246     1.0000 0.92900  0.06780  0.73339  Biso   1.000  C
  H431     1.0000 0.63561  0.02172  0.64699  Biso   1.000  H
  H432     1.0000 0.73183  0.00141  0.61559  Biso   1.000  H
  H433     1.0000 0.77021  0.04192  0.64501  Biso   1.000  H
  C247     1.0000 0.55080  0.88021  0.97680  Biso   1.000  C
  H434     1.0000 0.53337  0.78509  0.02849  Biso   1.000  H
  C248     1.0000 0.40369  0.83289  0.02010  Biso   1.000  C
  O138     1.0000 0.39349  0.75360  0.00740  Biso   1.000  O
  C249     1.0000 0.85512  0.07058  0.77179  Biso   1.000  C
  H435     1.0000 0.87894  0.08029  0.71069  Biso   1.000  H
  C250     1.0000 0.04792  0.09491  0.73550  Biso   1.000  C
  H436     1.0000 0.48517  0.88199  0.95581  Biso   1.000  H
  C251     1.0000 0.64396  0.91610  0.96451  Biso   1.000  C
  C252     1.0000 0.47961  0.87511  0.02041  Biso   1.000  C
  H437     1.0000 0.33222  0.83760  0.00180  Biso   1.000  H
  O139     1.0000 0.36142  0.82831  0.06150  Biso   1.000  O
  C253     1.0000 0.44401  0.71282  0.02419  Biso   1.000  C
  C254     1.0000 0.83417  0.11990  0.78359  Biso   1.000  C
  H438     1.0000 0.89803  0.05451  0.79431  Biso   1.000  H
  O140     1.0000 0.73591  0.05169  0.76610  Biso   1.000  O
  H439     1.0000 0.09946  0.08170  0.75739  Biso   1.000  H
  C255     1.0000 0.12597  0.09901  0.69691  Biso   1.000  C
  O141     1.0000 0.01900  0.14230  0.74671  Biso   1.000  O
  H440     1.0000 0.69568  0.90691  0.94150  Biso   1.000  H
  H441     1.0000 0.60669  0.94600  0.95940  Biso   1.000  H
  O142     1.0000 0.70300  0.91331  0.00238  Biso   1.000  O
  H442     1.0000 0.54060  0.87312  0.04280  Biso   1.000  H
  O143     1.0000 0.40378  0.91720  0.02570  Biso   1.000  O
  C256     1.0000 0.23897  0.81100  0.06491  Biso   1.000  C
  H443     1.0000 0.38274  0.68869  0.02289  Biso   1.000  H
  H444     1.0000 0.46672  0.71791  0.05249  Biso   1.000  H
  H445     1.0000 0.51539  0.70390  0.00849  Biso   1.000  H
  C257     1.0000 0.95458  0.14719  0.78381  Biso   1.000  C
  H446     1.0000 0.77809  0.13380  0.76318  Biso   1.000  H
  O144     1.0000 0.77929  0.12361  0.82320  Biso   1.000  O
  C258     1.0000 0.72238  0.00881  0.78350  Biso   1.000  C
  H447     1.0000 0.18706  0.12310  0.70091  Biso   1.000  H
  H448     1.0000 0.17000  0.07041  0.69248  Biso   1.000  H
  O145     1.0000 0.05423  0.10930  0.66121  Biso   1.000  O
  C259     1.0000 0.83000  0.92629  0.01000  Biso   1.000  C
  C260     1.0000 0.41741  0.93688  0.06460  Biso   1.000  C
  H449     1.0000 0.21644  0.80921  0.09359  Biso   1.000  H
  H450     1.0000 0.23517  0.78089  0.05280  Biso   1.000  H
  H451     1.0000 0.18298  0.83120  0.05070  Biso   1.000  H
  H452     1.0000 0.93456  0.17981  0.78759  Biso   1.000  H
  O146     1.0000 0.03272  0.13249  0.81809  Biso   1.000  O
  C261     1.0000 0.66101  0.14702  0.82339  Biso   1.000  C
  H453     1.0000 0.63941  0.99800  0.77901  Biso   1.000  H
  H454     1.0000 0.78013  0.98778  0.77099  Biso   1.000  H
  H455     1.0000 0.73813  0.01060  0.81270  Biso   1.000  H
  C262     1.0000 0.02697  0.15799  0.65659  Biso   1.000  C
  H456     1.0000 0.87959  0.91889  0.98610  Biso   1.000  H
  H457     1.0000 0.86123  0.91001  0.03360  Biso   1.000  H
  H458     1.0000 0.83472  0.95881  0.01499  Biso   1.000  H
  H459     1.0000 0.44271  0.91280  0.08399  Biso   1.000  H
  C263     1.0000 0.29737  0.95619  0.07869  Biso   1.000  C
  O147     1.0000 0.50973  0.97209  0.06479  Biso   1.000  O
  C264     1.0000 0.12727  0.16419  0.83101  Biso   1.000  C
  H460     1.0000 0.62773  0.14691  0.85101  Biso   1.000  H
  H461     1.0000 0.60475  0.13139  0.80521  Biso   1.000  H
  H462     1.0000 0.67186  0.17820  0.81428  Biso   1.000  H
  H463     1.0000 0.98016  0.16281  0.63169  Biso   1.000  H
  H464     1.0000 0.97942  0.16828  0.68000  Biso   1.000  H
  H465     1.0000 0.10298  0.17499  0.65520  Biso   1.000  H
  H466     1.0000 0.30766  0.96311  0.10820  Biso   1.000  H
  O148     1.0000 0.19920  0.92401  0.07609  Biso   1.000  O
  C265     1.0000 0.26474  0.00120  0.05800  Biso   1.000  C
  C266     1.0000 0.47933  0.00991  0.03818  Biso   1.000  C
  C267     1.0000 0.07601  0.19791  0.86281  Biso   1.000  C
  H467     1.0000 0.15832  0.18119  0.80691  Biso   1.000  H
  C268     1.0000 0.23053  0.13511  0.84909  Biso   1.000  C
  C269     1.0000 0.12699  0.91668  0.11161  Biso   1.000  C
  H468     1.0000 0.23730  0.99460  0.02970  Biso   1.000  H
  C270     1.0000 0.36911  0.03479  0.05608  Biso   1.000  C
  O149     1.0000 0.16157  0.02041  0.08070  Biso   1.000  O
  H469     1.0000 0.45588  0.99759  0.01099  Biso   1.000  H
  C271     1.0000 0.59594  0.03799  0.03311  Biso   1.000  C
  O150     1.0000 0.98878  0.22741  0.84370  Biso   1.000  O
  C272     1.0000 0.18280  0.22459  0.88291  Biso   1.000  C
  H470     1.0000 0.03337  0.18029  0.88449  Biso   1.000  H
  H471     1.0000 0.19624  0.11749  0.87229  Biso   1.000  H
  C273     1.0000 0.29199  0.10159  0.82001  Biso   1.000  C
  O151     1.0000 0.32536  0.16560  0.86519  Biso   1.000  O
  H472     1.0000 0.06313  0.89449  0.10560  Biso   1.000  H
  H473     1.0000 0.08899  0.94521  0.11991  Biso   1.000  H
  H474     1.0000 0.17807  0.90540  0.13360  Biso   1.000  H
  H475     1.0000 0.38895  0.04529  0.08411  Biso   1.000  H
  O152     1.0000 0.33139  0.07272  0.03190  Biso   1.000  O
  C274     1.0000 0.05441  0.03452  0.05899  Biso   1.000  C
  H476     1.0000 0.66416  0.01790  0.02561  Biso   1.000  H
  H477     1.0000 0.58463  0.06009  0.01090  Biso   1.000  H
  O153     1.0000 0.62366  0.06081  0.06940  Biso   1.000  O
  C275     1.0000 0.88265  0.23680  0.86801  Biso   1.000  C
  C276     1.0000 0.28346  0.19440  0.89771  Biso   1.000  C
  H478     1.0000 0.21793  0.24489  0.86170  Biso   1.000  H
  O154     1.0000 0.12996  0.25239  0.91310  Biso   1.000  O
  H479     1.0000 0.36151  0.08731  0.83401  Biso   1.000  H
  H480     1.0000 0.23341  0.07760  0.81280  Biso   1.000  H
  O155     1.0000 0.33380  0.12251  0.78409  Biso   1.000  O
  C277     1.0000 0.37783  0.11591  0.04131  Biso   1.000  C
  H481     1.0000 0.99527  0.04701  0.07820  Biso   1.000  H
  H482     1.0000 0.01863  0.00850  0.04509  Biso   1.000  H
  H483     1.0000 0.07629  0.05761  0.03908  Biso   1.000  H
  C278     1.0000 0.73554  0.08679  0.06680  Biso   1.000  C
  H484     1.0000 0.82851  0.25711  0.85309  Biso   1.000  H
  H485     1.0000 0.90749  0.25102  0.89350  Biso   1.000  H
  H486     1.0000 0.83991  0.20851  0.87380  Biso   1.000  H
  H487     1.0000 0.35252  0.21340  0.90759  Biso   1.000  H
  O156     1.0000 0.23841  0.16760  0.93060  Biso   1.000  O
  C279     1.0000 0.17696  0.29720  0.91589  Biso   1.000  C
  C280     1.0000 0.40202  0.08731  0.75950  Biso   1.000  C
  H488     1.0000 0.41973  0.11450  0.06819  Biso   1.000  H
  C281     1.0000 0.27030  0.15128  0.04401  Biso   1.000  C
  O157     1.0000 0.46292  0.13150  0.01130  Biso   1.000  O
  H489     1.0000 0.75111  0.10159  0.09278  Biso   1.000  H
  H490     1.0000 0.72757  0.10961  0.04549  Biso   1.000  H
  H491     1.0000 0.80321  0.06659  0.06030  Biso   1.000  H
  C282     1.0000 0.30423  0.16859  0.96820  Biso   1.000  C
  H492     1.0000 0.13200  0.31399  0.93661  Biso   1.000  H
  H493     1.0000 0.16843  0.31231  0.88960  Biso   1.000  H
  H494     1.0000 0.26316  0.29599  0.92338  Biso   1.000  H
  H495     1.0000 0.43354  0.10111  0.73460  Biso   1.000  H
  H496     1.0000 0.34705  0.06260  0.75250  Biso   1.000  H
  H497     1.0000 0.46997  0.07561  0.77560  Biso   1.000  H
  H498     1.0000 0.30376  0.18091  0.05348  Biso   1.000  H
  C283     1.0000 0.20977  0.15820  0.00161  Biso   1.000  C
  O158     1.0000 0.18196  0.13700  0.07129  Biso   1.000  O
  C284     1.0000 0.40971  0.13380  0.97070  Biso   1.000  C
  H499     1.0000 0.33750  0.19950  0.97259  Biso   1.000  H
  H500     1.0000 0.16240  0.13070  0.99409  Biso   1.000  H
  O159     1.0000 0.12671  0.19671  0.00709  Biso   1.000  O
  C285     1.0000 0.16898  0.15531  0.10991  Biso   1.000  C
  H501     1.0000 0.37532  0.10341  0.96420  Biso   1.000  H
  C286     1.0000 0.51316  0.14340  0.93989  Biso   1.000  C
  C287     1.0000 0.00463  0.19041  0.99461  Biso   1.000  C
  H502     1.0000 0.10085  0.14062  0.12381  Biso   1.000  H
  H503     1.0000 0.15258  0.18769  0.10758  Biso   1.000  H
  H504     1.0000 0.24360  0.15049  0.12539  Biso   1.000  H
  H505     1.0000 0.58129  0.12220  0.94450  Biso   1.000  H
  H506     1.0000 0.48304  0.13889  0.91189  Biso   1.000  H
  O160     1.0000 0.55497  0.18931  0.94478  Biso   1.000  O
  H507     1.0000 0.95801  0.21791  0.00009  Biso   1.000  H
  H508     1.0000 0.96885  0.16508  0.00951  Biso   1.000  H
  H509     1.0000 0.00250  0.18401  0.96541  Biso   1.000  H
  C288     1.0000 0.68233  0.20321  0.95191  Biso   1.000  C
  H510     1.0000 0.68530  0.23560  0.95739  Biso   1.000  H
  H511     1.0000 0.73118  0.19630  0.92791  Biso   1.000  H
  H512     1.0000 0.71478  0.18670  0.97529  Biso   1.000  H
  Ne1      1.0000 0.26129  0.02496  0.37257  Biso   1.000  Ne
  He1      1.0000 0.56512  0.05882  0.42079  Biso   1.000  He
  He2      1.0000 0.96347  0.97548  0.39866  Biso   1.000  He
  Ar1      1.0000 0.46221  0.04623  0.40541  Biso   1.000  Ar
  Ne2      1.0000 0.73870  0.52496  0.12743  Biso   1.000  Ne
  He3      1.0000 0.95154  0.48043  0.09429  Biso   1.000  He
  He4      1.0000 0.42081  0.56056  0.07733  Biso   1.000  He
  Ar2      1.0000 0.53785  0.54623  0.09459  Biso   1.000  Ar
  Ne3      1.0000 0.76128  0.47504  0.62742  Biso   1.000  Ne
  He5      1.0000 0.56271  0.51585  0.59185  Biso   1.000  He
  He6      1.0000 0.05683  0.44221  0.58032  Biso   1.000  He
  Ar3      1.0000 0.93296  0.45654  0.60191  Biso   1.000  Ar
  Ne4      1.0000 0.23871  0.97504  0.87257  Biso   1.000  Ne
  He7      1.0000 0.93190  0.94081  0.92118  Biso   1.000  He
  He8      1.0000 0.66901  0.04508  0.86021  Biso   1.000  He
  Ar4      1.0000 0.06699  0.95657  0.89810  Biso   1.000  Ar
