data_image0
_cell_length_a       15.15
_cell_length_b       15.15
_cell_length_c       44.75
_cell_angle_alpha    90
_cell_angle_beta     90
_cell_angle_gamma    120

_symmetry_space_group_name_H-M    "P 1"
_symmetry_int_tables_number       1

loop_
  _symmetry_equiv_pos_as_xyz
  'x, y, z'

loop_
  _atom_site_label
  _atom_site_occupancy
  _atom_site_fract_x
  _atom_site_fract_y
  _atom_site_fract_z
  _atom_site_thermal_displace_type
  _atom_site_B_iso_or_equiv
  _atom_site_type_symbol
  C1       1.0000 0.50667  0.54351  0.37242  Biso   1.000  C
  N1       1.0000 0.44320  0.44244  0.36058  Biso   1.000  N
  N2       1.0000 0.60903  0.59404  0.36042  Biso   1.000  N
  H1       1.0000 0.47478  0.58520  0.36793  Biso   1.000  H
  H2       1.0000 0.51017  0.53901  0.39444  Biso   1.000  H
  C2       1.0000 0.38340  0.42225  0.33341  Biso   1.000  C
  C3       1.0000 0.41485  0.35525  0.37672  Biso   1.000  C
  C4       1.0000 0.63776  0.65532  0.33350  Biso   1.000  C
  C5       1.0000 0.69054  0.60471  0.37622  Biso   1.000  C
  C6       1.0000 0.31581  0.30449  0.33316  Biso   1.000  C
  N3       1.0000 0.44242  0.44405  0.30608  Biso   1.000  N
  H3       1.0000 0.34150  0.45647  0.33363  Biso   1.000  H
  N4       1.0000 0.34278  0.27408  0.36083  Biso   1.000  N
  O1       1.0000 0.44830  0.35152  0.40127  Biso   1.000  O
  N5       1.0000 0.60745  0.59801  0.30583  Biso   1.000  N
  C7       1.0000 0.75555  0.70555  0.33327  Biso   1.000  C
  H4       1.0000 0.61575  0.70753  0.33412  Biso   1.000  H
  N6       1.0000 0.77731  0.66828  0.36058  Biso   1.000  N
  O2       1.0000 0.68757  0.56523  0.40031  Biso   1.000  O
  N7       1.0000 0.34834  0.27568  0.30623  Biso   1.000  N
  H5       1.0000 0.24156  0.28246  0.33254  Biso   1.000  H
  C8       1.0000 0.41914  0.35723  0.29044  Biso   1.000  C
  C9       1.0000 0.50448  0.54572  0.29455  Biso   1.000  C
  C10      1.0000 0.29209  0.17111  0.37213  Biso   1.000  C
  C11      1.0000 0.68858  0.60700  0.28994  Biso   1.000  C
  N8       1.0000 0.77580  0.66592  0.30610  Biso   1.000  N
  H6       1.0000 0.78975  0.78161  0.33303  Biso   1.000  H
  C12      1.0000 0.87904  0.70791  0.37213  Biso   1.000  C
  C13      1.0000 0.29643  0.17332  0.29423  Biso   1.000  C
  O3       1.0000 0.45568  0.35426  0.26637  Biso   1.000  O
  H7       1.0000 0.47168  0.58627  0.29953  Biso   1.000  H
  H8       1.0000 0.50684  0.54214  0.27254  Biso   1.000  H
  N9       1.0000 0.33170  0.10907  0.36058  Biso   1.000  N
  H9       1.0000 0.21874  0.13834  0.36713  Biso   1.000  H
  H10      1.0000 0.29806  0.17355  0.39412  Biso   1.000  H
  O4       1.0000 0.68487  0.56988  0.26539  Biso   1.000  O
  C14      1.0000 0.87687  0.70357  0.29423  Biso   1.000  C
  N10      1.0000 0.93132  0.65723  0.36083  Biso   1.000  N
  H11      1.0000 0.91959  0.78123  0.36713  Biso   1.000  H
  H12      1.0000 0.87547  0.70197  0.39412  Biso   1.000  H
  N11      1.0000 0.33406  0.10983  0.30610  Biso   1.000  N
  H13      1.0000 0.22288  0.14146  0.29873  Biso   1.000  H
  H14      1.0000 0.30445  0.17683  0.27222  Biso   1.000  H
  C15      1.0000 0.29444  0.05000  0.33327  Biso   1.000  C
  C16      1.0000 0.39525  0.08582  0.37622  Biso   1.000  C
  N12      1.0000 0.92735  0.65166  0.30623  Biso   1.000  N
  H15      1.0000 0.91859  0.77712  0.29873  Biso   1.000  H
  H16      1.0000 0.87240  0.69556  0.27222  Biso   1.000  H
  C17      1.0000 0.98870  0.68421  0.33316  Biso   1.000  C
  C18      1.0000 0.94035  0.58512  0.37672  Biso   1.000  C
  C19      1.0000 0.39299  0.08155  0.28994  Biso   1.000  C
  H17      1.0000 0.21840  0.00816  0.33303  Biso   1.000  H
  C20      1.0000 0.34463  0.98247  0.33350  Biso   1.000  C
  N13      1.0000 0.40599  0.01501  0.36042  Biso   1.000  N
  O5       1.0000 0.43476  0.12233  0.40031  Biso   1.000  O
  C21      1.0000 0.93808  0.58086  0.29044  Biso   1.000  C
  C22      1.0000 0.03886  0.61660  0.33341  Biso   1.000  C
  H18      1.0000 0.04087  0.75844  0.33254  Biso   1.000  H
  O6       1.0000 0.90323  0.55166  0.40127  Biso   1.000  O
  N14      1.0000 0.99928  0.55685  0.36058  Biso   1.000  N
  O7       1.0000 0.43011  0.11501  0.26539  Biso   1.000  O
  N15      1.0000 0.40202  0.00945  0.30583  Biso   1.000  N
  H19      1.0000 0.29247  0.90823  0.33412  Biso   1.000  H
  C23      1.0000 0.45647  0.96311  0.37242  Biso   1.000  C
  O8       1.0000 0.89858  0.54435  0.26637  Biso   1.000  O
  N16      1.0000 0.00164  0.55761  0.30608  Biso   1.000  N
  H20      1.0000 0.11494  0.65852  0.33363  Biso   1.000  H
  C24      1.0000 0.03691  0.49336  0.37242  Biso   1.000  C
  C25      1.0000 0.45430  0.95877  0.29455  Biso   1.000  C
  N17      1.0000 0.55750  0.00069  0.36058  Biso   1.000  N
  H21      1.0000 0.41475  0.88956  0.36793  Biso   1.000  H
  H22      1.0000 0.46094  0.97111  0.39444  Biso   1.000  H
  C26      1.0000 0.04125  0.49557  0.29455  Biso   1.000  C
  N18      1.0000 0.98500  0.39100  0.36042  Biso   1.000  N
  H23      1.0000 0.11046  0.52522  0.36793  Biso   1.000  H
  H24      1.0000 0.02889  0.48985  0.39444  Biso   1.000  H
  N19      1.0000 0.55603  0.99840  0.30608  Biso   1.000  N
  H25      1.0000 0.41375  0.88544  0.29953  Biso   1.000  H
  H26      1.0000 0.45787  0.96471  0.27254  Biso   1.000  H
  C27      1.0000 0.57779  0.96113  0.33341  Biso   1.000  C
  C28      1.0000 0.64472  0.05960  0.37672  Biso   1.000  C
  N20      1.0000 0.99056  0.39260  0.30583  Biso   1.000  N
  H27      1.0000 0.11460  0.52834  0.29953  Biso   1.000  H
  H28      1.0000 0.03528  0.49313  0.27254  Biso   1.000  H
  C29      1.0000 0.91419  0.30944  0.37622  Biso   1.000  C
  C30      1.0000 0.01753  0.36219  0.33350  Biso   1.000  C
  C31      1.0000 0.64276  0.06189  0.29044  Biso   1.000  C
  C32      1.0000 0.69554  0.01128  0.33316  Biso   1.000  C
  H29      1.0000 0.54359  0.88506  0.33363  Biso   1.000  H
  O9       1.0000 0.64846  0.09680  0.40127  Biso   1.000  O
  N21      1.0000 0.72589  0.06867  0.36083  Biso   1.000  N
  C33      1.0000 0.91849  0.31143  0.28994  Biso   1.000  C
  N22      1.0000 0.89092  0.22263  0.36058  Biso   1.000  N
  O10      1.0000 0.87766  0.31242  0.40031  Biso   1.000  O
  C34      1.0000 0.94994  0.24443  0.33327  Biso   1.000  C
  H30      1.0000 0.09178  0.38421  0.33412  Biso   1.000  H
  O11      1.0000 0.64573  0.10137  0.26637  Biso   1.000  O
  N23      1.0000 0.72430  0.07264  0.30623  Biso   1.000  N
  H31      1.0000 0.71759  0.95915  0.33254  Biso   1.000  H
  C35      1.0000 0.82886  0.12096  0.37213  Biso   1.000  C
  N24      1.0000 0.89014  0.22423  0.30610  Biso   1.000  N
  O12      1.0000 0.88504  0.31516  0.26539  Biso   1.000  O
  H32      1.0000 0.99184  0.21021  0.33303  Biso   1.000  H
  C36      1.0000 0.82667  0.12317  0.29423  Biso   1.000  C
  H33      1.0000 0.86166  0.08041  0.36713  Biso   1.000  H
  H34      1.0000 0.82649  0.12454  0.39412  Biso   1.000  H
  H35      1.0000 0.85852  0.08140  0.29873  Biso   1.000  H
  H36      1.0000 0.82317  0.12766  0.27222  Biso   1.000  H
  C37      1.0000 0.62980  0.78977  0.46092  Biso   1.000  C
  N25      1.0000 0.68167  0.73931  0.47289  Biso   1.000  N
  H37      1.0000 0.55622  0.74808  0.46541  Biso   1.000  H
  H38      1.0000 0.63779  0.79427  0.43891  Biso   1.000  H
  N26      1.0000 0.66744  0.89091  0.47276  Biso   1.000  N
  C38      1.0000 0.75247  0.72857  0.45712  Biso   1.000  C
  C39      1.0000 0.64908  0.67796  0.49982  Biso   1.000  C
  C40      1.0000 0.62783  0.91111  0.49993  Biso   1.000  C
  C41      1.0000 0.72628  0.97810  0.45663  Biso   1.000  C
  O13      1.0000 0.78897  0.76805  0.43303  Biso   1.000  O
  N27      1.0000 0.77567  0.66500  0.47276  Biso   1.000  N
  C42      1.0000 0.71668  0.62781  0.50007  Biso   1.000  C
  N28      1.0000 0.67612  0.73535  0.52749  Biso   1.000  N
  H39      1.0000 0.57489  0.62582  0.49920  Biso   1.000  H
  N29      1.0000 0.66505  0.88931  0.52724  Biso   1.000  N
  H40      1.0000 0.55171  0.87689  0.49971  Biso   1.000  H
  C43      1.0000 0.67800  0.02886  0.50018  Biso   1.000  C
  O14      1.0000 0.76342  0.98176  0.43204  Biso   1.000  O
  N30      1.0000 0.73534  0.05920  0.47251  Biso   1.000  N
  C44      1.0000 0.83777  0.62537  0.46121  Biso   1.000  C
  N31      1.0000 0.77652  0.66736  0.52724  Biso   1.000  N
  H41      1.0000 0.67478  0.55166  0.50029  Biso   1.000  H
  C45      1.0000 0.74822  0.72628  0.54337  Biso   1.000  C
  C46      1.0000 0.62543  0.78764  0.53879  Biso   1.000  C
  C47      1.0000 0.72855  0.97605  0.54288  Biso   1.000  C
  C48      1.0000 0.72859  0.97612  0.54288  Biso   1.000  C
  N32      1.0000 0.73929  0.05760  0.52711  Biso   1.000  N
  H42      1.0000 0.62578  0.05089  0.50080  Biso   1.000  H
  N33      1.0000 0.73933  0.05768  0.52711  Biso   1.000  N
  C49      1.0000 0.78762  0.16217  0.46121  Biso   1.000  C
  C50      1.0000 0.78766  0.16225  0.46121  Biso   1.000  C
  N34      1.0000 0.94077  0.67613  0.47251  Biso   1.000  N
  H43      1.0000 0.84018  0.63139  0.43920  Biso   1.000  H
  H44      1.0000 0.80504  0.55212  0.46619  Biso   1.000  H
  C51      1.0000 0.83998  0.62979  0.53908  Biso   1.000  C
  O15      1.0000 0.78167  0.76347  0.56796  Biso   1.000  O
  H45      1.0000 0.55209  0.74709  0.53381  Biso   1.000  H
  H46      1.0000 0.63138  0.79122  0.56080  Biso   1.000  H
  O16      1.0000 0.76810  0.97909  0.56697  Biso   1.000  O
  C52      1.0000 0.78975  0.15996  0.53908  Biso   1.000  C
  C53      1.0000 0.78979  0.16004  0.53908  Biso   1.000  C
  N35      1.0000 0.88931  0.22429  0.47276  Biso   1.000  N
  H47      1.0000 0.79119  0.15981  0.43920  Biso   1.000  H
  H48      1.0000 0.74708  0.19502  0.46619  Biso   1.000  H
  C54      1.0000 0.97114  0.64907  0.50018  Biso   1.000  C
  C55      1.0000 0.02190  0.74823  0.45663  Biso   1.000  C
  N36      1.0000 0.94233  0.68162  0.52711  Biso   1.000  N
  H49      1.0000 0.84352  0.63779  0.56109  Biso   1.000  H
  H50      1.0000 0.80815  0.55624  0.53459  Biso   1.000  H
  H51      1.0000 0.80805  0.55616  0.53459  Biso   1.000  H
  N37      1.0000 0.89087  0.22345  0.52724  Biso   1.000  N
  H52      1.0000 0.74809  0.19189  0.53459  Biso   1.000  H
  N38      1.0000 0.89090  0.22353  0.52724  Biso   1.000  N
  H53      1.0000 0.79430  0.15653  0.56109  Biso   1.000  H
  C56      1.0000 0.91108  0.28328  0.50007  Biso   1.000  C
  C57      1.0000 0.97611  0.24753  0.45712  Biso   1.000  C
  H54      1.0000 0.94911  0.57491  0.50080  Biso   1.000  H
  C58      1.0000 0.08890  0.71668  0.49993  Biso   1.000  C
  N39      1.0000 0.10911  0.77651  0.47276  Biso   1.000  N
  O17      1.0000 0.01824  0.78169  0.43204  Biso   1.000  O
  C59      1.0000 0.02391  0.75250  0.54288  Biso   1.000  C
  C60      1.0000 0.97811  0.25180  0.54337  Biso   1.000  C
  O18      1.0000 0.97911  0.21103  0.43303  Biso   1.000  O
  N40      1.0000 0.05765  0.31834  0.47289  Biso   1.000  N
  H55      1.0000 0.87692  0.32520  0.50029  Biso   1.000  H
  C61      1.0000 0.02884  0.35089  0.49982  Biso   1.000  C
  N41      1.0000 0.11067  0.77567  0.52724  Biso   1.000  N
  N42      1.0000 0.11071  0.77575  0.52724  Biso   1.000  N
  H56      1.0000 0.12309  0.67483  0.49971  Biso   1.000  H
  C62      1.0000 0.21023  0.84000  0.46092  Biso   1.000  C
  O19      1.0000 0.02091  0.78901  0.56697  Biso   1.000  O
  O20      1.0000 0.98178  0.21834  0.56796  Biso   1.000  O
  N43      1.0000 0.05921  0.32383  0.52749  Biso   1.000  N
  N44      1.0000 0.05925  0.32390  0.52749  Biso   1.000  N
  C63      1.0000 0.16000  0.37017  0.46092  Biso   1.000  C
  H57      1.0000 0.05087  0.42505  0.49920  Biso   1.000  H
  H58      1.0000 0.05091  0.42512  0.49920  Biso   1.000  H
  C64      1.0000 0.21236  0.83779  0.53879  Biso   1.000  C
  N45      1.0000 0.26068  0.94236  0.47289  Biso   1.000  N
  H59      1.0000 0.20571  0.84350  0.43891  Biso   1.000  H
  H60      1.0000 0.25192  0.80814  0.46541  Biso   1.000  H
  C65      1.0000 0.16221  0.37459  0.53879  Biso   1.000  C
  N46      1.0000 0.22346  0.33259  0.47276  Biso   1.000  N
  H61      1.0000 0.19193  0.44379  0.46541  Biso   1.000  H
  H62      1.0000 0.15646  0.36217  0.43891  Biso   1.000  H
  N47      1.0000 0.26464  0.94076  0.52749  Biso   1.000  N
  H63      1.0000 0.25294  0.80501  0.53381  Biso   1.000  H
  H64      1.0000 0.20883  0.84023  0.56080  Biso   1.000  H
  C66      1.0000 0.32198  0.97109  0.49982  Biso   1.000  C
  C67      1.0000 0.27143  0.02391  0.45712  Biso   1.000  C
  N48      1.0000 0.22431  0.33496  0.52724  Biso   1.000  N
  H65      1.0000 0.19498  0.44791  0.53381  Biso   1.000  H
  H66      1.0000 0.15980  0.36857  0.56080  Biso   1.000  H
  C68      1.0000 0.25176  0.27368  0.45663  Biso   1.000  C
  C69      1.0000 0.28330  0.37215  0.49993  Biso   1.000  C
  C70      1.0000 0.28334  0.37223  0.49993  Biso   1.000  C
  C71      1.0000 0.27374  0.02193  0.54337  Biso   1.000  C
  H67      1.0000 0.37420  0.94906  0.49920  Biso   1.000  H
  C72      1.0000 0.37215  0.08885  0.50007  Biso   1.000  C
  C73      1.0000 0.37219  0.08892  0.50007  Biso   1.000  C
  O21      1.0000 0.23188  0.02086  0.43303  Biso   1.000  O
  N49      1.0000 0.33493  0.11065  0.47276  Biso   1.000  N
  C74      1.0000 0.24751  0.27139  0.54288  Biso   1.000  C
  N50      1.0000 0.32385  0.26461  0.47251  Biso   1.000  N
  O22      1.0000 0.21835  0.23656  0.43204  Biso   1.000  O
  C75      1.0000 0.35090  0.32200  0.50018  Biso   1.000  C
  H68      1.0000 0.32520  0.44829  0.49971  Biso   1.000  H
  O23      1.0000 0.23656  0.01819  0.56796  Biso   1.000  O
  N51      1.0000 0.33258  0.10912  0.52724  Biso   1.000  N
  H69      1.0000 0.44827  0.12307  0.50029  Biso   1.000  H
  C76      1.0000 0.37458  0.21240  0.46121  Biso   1.000  C
  N52      1.0000 0.31835  0.26072  0.52711  Biso   1.000  N
  O24      1.0000 0.21100  0.23191  0.56697  Biso   1.000  O
  H70      1.0000 0.42512  0.37421  0.50080  Biso   1.000  H
  C77      1.0000 0.37018  0.21019  0.53908  Biso   1.000  C
  H71      1.0000 0.44789  0.25287  0.46619  Biso   1.000  H
  H72      1.0000 0.36863  0.20882  0.43920  Biso   1.000  H
  H73      1.0000 0.44376  0.25188  0.53459  Biso   1.000  H
  H74      1.0000 0.36219  0.20569  0.56109  Biso   1.000  H
  O25      1.0000 0.54435  0.89861  0.23363  Biso   1.000  O
  C78      1.0000 0.58086  0.93809  0.20956  Biso   1.000  C
  N53      1.0000 0.65166  0.92734  0.19377  Biso   1.000  N
  N54      1.0000 0.55766  0.00166  0.19392  Biso   1.000  N
  C79      1.0000 0.70353  0.87689  0.20577  Biso   1.000  C
  C80      1.0000 0.68425  0.98870  0.16684  Biso   1.000  C
  C81      1.0000 0.61665  0.03885  0.16659  Biso   1.000  C
  C82      1.0000 0.49556  0.04129  0.20545  Biso   1.000  C
  N55      1.0000 0.66593  0.77582  0.19390  Biso   1.000  N
  H75      1.0000 0.77711  0.91858  0.20127  Biso   1.000  H
  H76      1.0000 0.69553  0.87239  0.22778  Biso   1.000  H
  N56      1.0000 0.65720  0.93131  0.13917  Biso   1.000  N
  H77      1.0000 0.75844  0.04083  0.16746  Biso   1.000  H
  N57      1.0000 0.55681  0.99929  0.13942  Biso   1.000  N
  H78      1.0000 0.65855  0.11499  0.16637  Biso   1.000  H
  N58      1.0000 0.39256  0.99053  0.19417  Biso   1.000  N
  H79      1.0000 0.52829  0.11453  0.20047  Biso   1.000  H
  H80      1.0000 0.49315  0.03527  0.22746  Biso   1.000  H
  C83      1.0000 0.60705  0.68855  0.21006  Biso   1.000  C
  C84      1.0000 0.70550  0.75555  0.16673  Biso   1.000  C
  C85      1.0000 0.70789  0.87902  0.12787  Biso   1.000  C
  C86      1.0000 0.58511  0.94038  0.12328  Biso   1.000  C
  C87      1.0000 0.49335  0.03687  0.12758  Biso   1.000  C
  C88      1.0000 0.31146  0.91850  0.21006  Biso   1.000  C
  C89      1.0000 0.36219  0.01758  0.16650  Biso   1.000  C
  N59      1.0000 0.59799  0.60746  0.19417  Biso   1.000  N
  O26      1.0000 0.56991  0.68489  0.23461  Biso   1.000  O
  C90      1.0000 0.65533  0.63779  0.16650  Biso   1.000  C
  N60      1.0000 0.66828  0.77735  0.13942  Biso   1.000  N
  H81      1.0000 0.78162  0.78977  0.16697  Biso   1.000  H
  H82      1.0000 0.78124  0.91957  0.13287  Biso   1.000  H
  H83      1.0000 0.70194  0.87544  0.10588  Biso   1.000  H
  O27      1.0000 0.55166  0.90318  0.09873  Biso   1.000  O
  N61      1.0000 0.39100  0.98504  0.13958  Biso   1.000  N
  H84      1.0000 0.52528  0.11049  0.13207  Biso   1.000  H
  H85      1.0000 0.48981  0.02886  0.10556  Biso   1.000  H
  N62      1.0000 0.22422  0.89015  0.19390  Biso   1.000  N
  O28      1.0000 0.31513  0.88504  0.23461  Biso   1.000  O
  C91      1.0000 0.24443  0.94998  0.16673  Biso   1.000  C
  H86      1.0000 0.38422  0.09174  0.16588  Biso   1.000  H
  C92      1.0000 0.54571  0.50449  0.20545  Biso   1.000  C
  N63      1.0000 0.59403  0.60906  0.13958  Biso   1.000  N
  H87      1.0000 0.70755  0.61576  0.16588  Biso   1.000  H
  C93      1.0000 0.60478  0.69061  0.12378  Biso   1.000  C
  C94      1.0000 0.30942  0.91416  0.12378  Biso   1.000  C
  C95      1.0000 0.12310  0.82666  0.20577  Biso   1.000  C
  N64      1.0000 0.22266  0.89099  0.13942  Biso   1.000  N
  H88      1.0000 0.21027  0.99190  0.16697  Biso   1.000  H
  N65      1.0000 0.44402  0.44237  0.19392  Biso   1.000  N
  H89      1.0000 0.58625  0.47164  0.20047  Biso   1.000  H
  H90      1.0000 0.54214  0.50685  0.22746  Biso   1.000  H
  C96      1.0000 0.54358  0.50670  0.12758  Biso   1.000  C
  O29      1.0000 0.56523  0.68756  0.09969  Biso   1.000  O
  O30      1.0000 0.31246  0.87772  0.09969  Biso   1.000  O
  N66      1.0000 0.07264  0.72430  0.19377  Biso   1.000  N
  H91      1.0000 0.08144  0.85859  0.20127  Biso   1.000  H
  H92      1.0000 0.12762  0.82315  0.22778  Biso   1.000  H
  C97      1.0000 0.12097  0.82887  0.12787  Biso   1.000  C
  C98      1.0000 0.35726  0.41920  0.20956  Biso   1.000  C
  C99      1.0000 0.42225  0.38338  0.16659  Biso   1.000  C
  N67      1.0000 0.44246  0.44321  0.13942  Biso   1.000  N
  H93      1.0000 0.58524  0.47476  0.13207  Biso   1.000  H
  H94      1.0000 0.53906  0.51020  0.10556  Biso   1.000  H
  C100     1.0000 0.06190  0.64275  0.20956  Biso   1.000  C
  C101     1.0000 0.01135  0.69556  0.16684  Biso   1.000  C
  N68      1.0000 0.06869  0.72590  0.13917  Biso   1.000  N
  H95      1.0000 0.08039  0.86164  0.13287  Biso   1.000  H
  H96      1.0000 0.12450  0.82643  0.10588  Biso   1.000  H
  N69      1.0000 0.27568  0.34832  0.19377  Biso   1.000  N
  O31      1.0000 0.35422  0.45563  0.23363  Biso   1.000  O
  C102     1.0000 0.30449  0.31577  0.16684  Biso   1.000  C
  H97      1.0000 0.45640  0.34146  0.16637  Biso   1.000  H
  C103     1.0000 0.35522  0.41485  0.12328  Biso   1.000  C
  N70      1.0000 0.99840  0.55601  0.19392  Biso   1.000  N
  O32      1.0000 0.10144  0.64579  0.23363  Biso   1.000  O
  C104     1.0000 0.96114  0.57773  0.16659  Biso   1.000  C
  H98      1.0000 0.95913  0.71759  0.16746  Biso   1.000  H
  C105     1.0000 0.05963  0.64480  0.12328  Biso   1.000  C
  C106     1.0000 0.17333  0.29649  0.20577  Biso   1.000  C
  N71      1.0000 0.27412  0.34283  0.13917  Biso   1.000  N
  H99      1.0000 0.28242  0.24153  0.16746  Biso   1.000  H
  O33      1.0000 0.35155  0.44831  0.09873  Biso   1.000  O
  C107     1.0000 0.95875  0.45426  0.20545  Biso   1.000  C
  N72      1.0000 0.00075  0.55753  0.13942  Biso   1.000  N
  H100     1.0000 0.88506  0.54359  0.16637  Biso   1.000  H
  O34      1.0000 0.09677  0.64846  0.09873  Biso   1.000  O
  N73      1.0000 0.10987  0.33406  0.19390  Biso   1.000  N
  H101     1.0000 0.14146  0.22286  0.20127  Biso   1.000  H
  H102     1.0000 0.17687  0.30449  0.22778  Biso   1.000  H
  C108     1.0000 0.17112  0.29207  0.12787  Biso   1.000  C
  N74      1.0000 0.00947  0.40205  0.19417  Biso   1.000  N
  H103     1.0000 0.88544  0.41379  0.20047  Biso   1.000  H
  H104     1.0000 0.96470  0.45784  0.22746  Biso   1.000  H
  C109     1.0000 0.96315  0.45647  0.12758  Biso   1.000  C
  C110     1.0000 0.04999  0.29443  0.16673  Biso   1.000  C
  C111     1.0000 0.08157  0.39298  0.21006  Biso   1.000  C
  N75      1.0000 0.10902  0.33170  0.13942  Biso   1.000  N
  H105     1.0000 0.13835  0.21875  0.13287  Biso   1.000  H
  H106     1.0000 0.17353  0.29809  0.10588  Biso   1.000  H
  C112     1.0000 0.98243  0.34466  0.16650  Biso   1.000  C
  N76      1.0000 0.01498  0.40594  0.13958  Biso   1.000  N
  H107     1.0000 0.88957  0.41478  0.13207  Biso   1.000  H
  H108     1.0000 0.97114  0.46097  0.10556  Biso   1.000  H
  H109     1.0000 0.00813  0.21836  0.16697  Biso   1.000  H
  O35      1.0000 0.11498  0.43010  0.23461  Biso   1.000  O
  C113     1.0000 0.08582  0.39527  0.12378  Biso   1.000  C
  H110     1.0000 0.90820  0.29245  0.16588  Biso   1.000  H
  O36      1.0000 0.12232  0.43475  0.09969  Biso   1.000  O
  O37      1.0000 0.56527  0.87772  0.59969  Biso   1.000  O
  C114     1.0000 0.60474  0.91416  0.62378  Biso   1.000  C
  N77      1.0000 0.66833  0.89099  0.63942  Biso   1.000  N
  N78      1.0000 0.59404  0.98504  0.63958  Biso   1.000  N
  C115     1.0000 0.70790  0.82887  0.62787  Biso   1.000  C
  C116     1.0000 0.70555  0.94998  0.66673  Biso   1.000  C
  C117     1.0000 0.65539  0.01758  0.66650  Biso   1.000  C
  C118     1.0000 0.54352  0.03687  0.62758  Biso   1.000  C
  N79      1.0000 0.65721  0.72590  0.63917  Biso   1.000  N
  H111     1.0000 0.78125  0.86164  0.63287  Biso   1.000  H
  H112     1.0000 0.70193  0.82643  0.60588  Biso   1.000  H
  N80      1.0000 0.66593  0.89015  0.69390  Biso   1.000  N
  H113     1.0000 0.78163  0.99190  0.66697  Biso   1.000  H
  N81      1.0000 0.59797  0.99053  0.69417  Biso   1.000  N
  H114     1.0000 0.70752  0.09174  0.66588  Biso   1.000  H
  N82      1.0000 0.44248  0.99929  0.63942  Biso   1.000  N
  H115     1.0000 0.58528  0.11049  0.63207  Biso   1.000  H
  H116     1.0000 0.53905  0.02886  0.60556  Biso   1.000  H
  C119     1.0000 0.58517  0.64480  0.62328  Biso   1.000  C
  C120     1.0000 0.68422  0.69556  0.66684  Biso   1.000  C
  C121     1.0000 0.70356  0.82666  0.70577  Biso   1.000  C
  C122     1.0000 0.60704  0.91850  0.71006  Biso   1.000  C
  C123     1.0000 0.54573  0.04129  0.70545  Biso   1.000  C
  C124     1.0000 0.35527  0.94038  0.62328  Biso   1.000  C
  C125     1.0000 0.42220  0.03885  0.66659  Biso   1.000  C
  N83      1.0000 0.55679  0.55753  0.63942  Biso   1.000  N
  O38      1.0000 0.55169  0.64846  0.59873  Biso   1.000  O
  C126     1.0000 0.61659  0.57773  0.66659  Biso   1.000  C
  N84      1.0000 0.65165  0.72430  0.69377  Biso   1.000  N
  H117     1.0000 0.75847  0.71759  0.66746  Biso   1.000  H
  H118     1.0000 0.77715  0.85859  0.70127  Biso   1.000  H
  H119     1.0000 0.69554  0.82315  0.72778  Biso   1.000  H
  O39      1.0000 0.56991  0.88504  0.73461  Biso   1.000  O
  N85      1.0000 0.44400  0.00166  0.69392  Biso   1.000  N
  H120     1.0000 0.58624  0.11453  0.70047  Biso   1.000  H
  H121     1.0000 0.54212  0.03527  0.72746  Biso   1.000  H
  N86      1.0000 0.27410  0.93131  0.63917  Biso   1.000  N
  O40      1.0000 0.35152  0.90318  0.59873  Biso   1.000  O
  C127     1.0000 0.30445  0.98870  0.66684  Biso   1.000  C
  H122     1.0000 0.45644  0.11499  0.66637  Biso   1.000  H
  C128     1.0000 0.49332  0.45647  0.62758  Biso   1.000  C
  N87      1.0000 0.55761  0.55601  0.69392  Biso   1.000  N
  H123     1.0000 0.65853  0.54359  0.66637  Biso   1.000  H
  C129     1.0000 0.58084  0.64275  0.70956  Biso   1.000  C
  C130     1.0000 0.35723  0.93809  0.70956  Biso   1.000  C
  C131     1.0000 0.17113  0.87902  0.62787  Biso   1.000  C
  N88      1.0000 0.27568  0.92734  0.69377  Biso   1.000  N
  H124     1.0000 0.28240  0.04083  0.66746  Biso   1.000  H
  N89      1.0000 0.39095  0.40594  0.63958  Biso   1.000  N
  H125     1.0000 0.52521  0.41478  0.63207  Biso   1.000  H
  H126     1.0000 0.48982  0.46097  0.60556  Biso   1.000  H
  C132     1.0000 0.49551  0.45426  0.70545  Biso   1.000  C
  O41      1.0000 0.54435  0.64579  0.73363  Biso   1.000  O
  O42      1.0000 0.35425  0.89861  0.73363  Biso   1.000  O
  N90      1.0000 0.10907  0.77735  0.63942  Biso   1.000  N
  H127     1.0000 0.13833  0.91957  0.63287  Biso   1.000  H
  H128     1.0000 0.17349  0.87544  0.60588  Biso   1.000  H
  C133     1.0000 0.17336  0.87689  0.70577  Biso   1.000  C
  C134     1.0000 0.30945  0.39527  0.62378  Biso   1.000  C
  C135     1.0000 0.36223  0.34466  0.66650  Biso   1.000  C
  N91      1.0000 0.39258  0.40205  0.69417  Biso   1.000  N
  H129     1.0000 0.52835  0.41379  0.70047  Biso   1.000  H
  H130     1.0000 0.49314  0.45784  0.72746  Biso   1.000  H
  C136     1.0000 0.08583  0.69061  0.62378  Biso   1.000  C
  C137     1.0000 0.05005  0.75555  0.66673  Biso   1.000  C
  N92      1.0000 0.10989  0.77582  0.69390  Biso   1.000  N
  H131     1.0000 0.14147  0.91858  0.70127  Biso   1.000  H
  H132     1.0000 0.17685  0.87239  0.72778  Biso   1.000  H
  O43      1.0000 0.31242  0.43475  0.59969  Biso   1.000  O
  N93      1.0000 0.22268  0.33170  0.63942  Biso   1.000  N
  C138     1.0000 0.24444  0.29443  0.66673  Biso   1.000  C
  H133     1.0000 0.38424  0.29245  0.66588  Biso   1.000  H
  C139     1.0000 0.31141  0.39298  0.71006  Biso   1.000  C
  N94      1.0000 0.01502  0.60906  0.63958  Biso   1.000  N
  O44      1.0000 0.12233  0.68756  0.59969  Biso   1.000  O
  C140     1.0000 0.98246  0.63779  0.66650  Biso   1.000  C
  H134     1.0000 0.00815  0.78977  0.66697  Biso   1.000  H
  C141     1.0000 0.08150  0.68855  0.71006  Biso   1.000  C
  C142     1.0000 0.12095  0.29207  0.62787  Biso   1.000  C
  N95      1.0000 0.22419  0.33406  0.69390  Biso   1.000  N
  H135     1.0000 0.21024  0.21836  0.66697  Biso   1.000  H
  O45      1.0000 0.31511  0.43010  0.73461  Biso   1.000  O
  C143     1.0000 0.96312  0.50670  0.62758  Biso   1.000  C
  N96      1.0000 0.00947  0.60746  0.69417  Biso   1.000  N
  H136     1.0000 0.90821  0.61576  0.66588  Biso   1.000  H
  O46      1.0000 0.11499  0.68489  0.73461  Biso   1.000  O
  N97      1.0000 0.06871  0.34283  0.63917  Biso   1.000  N
  H137     1.0000 0.08040  0.21875  0.63287  Biso   1.000  H
  H138     1.0000 0.12456  0.29809  0.60588  Biso   1.000  H
  C144     1.0000 0.12316  0.29649  0.70577  Biso   1.000  C
  N98      1.0000 0.00075  0.44321  0.63942  Biso   1.000  N
  H139     1.0000 0.88953  0.47476  0.63207  Biso   1.000  H
  H140     1.0000 0.97114  0.51020  0.60556  Biso   1.000  H
  C145     1.0000 0.95878  0.50449  0.70545  Biso   1.000  C
  C146     1.0000 0.01128  0.31577  0.66684  Biso   1.000  C
  C147     1.0000 0.05964  0.41485  0.62328  Biso   1.000  C
  N99      1.0000 0.07264  0.34832  0.69377  Biso   1.000  N
  H141     1.0000 0.08146  0.22286  0.70127  Biso   1.000  H
  H142     1.0000 0.12762  0.30449  0.72778  Biso   1.000  H
  C148     1.0000 0.96113  0.38338  0.66659  Biso   1.000  C
  N100     1.0000 0.99835  0.44237  0.69392  Biso   1.000  N
  H143     1.0000 0.88539  0.47164  0.70047  Biso   1.000  H
  H144     1.0000 0.96471  0.50685  0.72746  Biso   1.000  H
  H145     1.0000 0.95912  0.24153  0.66746  Biso   1.000  H
  O47      1.0000 0.09676  0.44831  0.59873  Biso   1.000  O
  C149     1.0000 0.06194  0.41920  0.70956  Biso   1.000  C
  H146     1.0000 0.88505  0.34146  0.66637  Biso   1.000  H
  O48      1.0000 0.10141  0.45563  0.73363  Biso   1.000  O
  O49      1.0000 0.21100  0.97909  0.06697  Biso   1.000  O
  C150     1.0000 0.24749  0.97605  0.04288  Biso   1.000  C
  C151     1.0000 0.24753  0.97612  0.04288  Biso   1.000  C
  N101     1.0000 0.22426  0.88931  0.02724  Biso   1.000  N
  N102     1.0000 0.31830  0.05760  0.02711  Biso   1.000  N
  N103     1.0000 0.31834  0.05768  0.02711  Biso   1.000  N
  C152     1.0000 0.16220  0.78764  0.03879  Biso   1.000  C
  C153     1.0000 0.28328  0.91111  0.99993  Biso   1.000  C
  C154     1.0000 0.35087  0.02886  0.00018  Biso   1.000  C
  C155     1.0000 0.37021  0.15996  0.03908  Biso   1.000  C
  C156     1.0000 0.37025  0.16004  0.03908  Biso   1.000  C
  N104     1.0000 0.05923  0.73535  0.02749  Biso   1.000  N
  H147     1.0000 0.19500  0.74709  0.03381  Biso   1.000  H
  H148     1.0000 0.15983  0.79122  0.06080  Biso   1.000  H
  N105     1.0000 0.22348  0.89091  0.97276  Biso   1.000  N
  H149     1.0000 0.32518  0.87689  0.99971  Biso   1.000  H
  N106     1.0000 0.32386  0.05920  0.97251  Biso   1.000  N
  H150     1.0000 0.42512  0.05089  0.00080  Biso   1.000  H
  N107     1.0000 0.33258  0.22345  0.02724  Biso   1.000  N
  H151     1.0000 0.44380  0.19189  0.03459  Biso   1.000  H
  N108     1.0000 0.33262  0.22353  0.02724  Biso   1.000  N
  H152     1.0000 0.36223  0.15653  0.06109  Biso   1.000  H
  C157     1.0000 0.97806  0.72628  0.04337  Biso   1.000  C
  C158     1.0000 0.02888  0.67796  0.99982  Biso   1.000  C
  C159     1.0000 0.15997  0.78977  0.96092  Biso   1.000  C
  C160     1.0000 0.25182  0.97810  0.95663  Biso   1.000  C
  C161     1.0000 0.37455  0.16217  0.96121  Biso   1.000  C
  C162     1.0000 0.37459  0.16225  0.96121  Biso   1.000  C
  C163     1.0000 0.37220  0.28328  0.00007  Biso   1.000  C
  C164     1.0000 0.27369  0.25180  0.04337  Biso   1.000  C
  N109     1.0000 0.89084  0.66736  0.02724  Biso   1.000  N
  O50      1.0000 0.98180  0.76347  0.06796  Biso   1.000  O
  C165     1.0000 0.91113  0.62781  0.00007  Biso   1.000  C
  N110     1.0000 0.05764  0.73931  0.97289  Biso   1.000  N
  H153     1.0000 0.05093  0.62582  0.99920  Biso   1.000  H
  H154     1.0000 0.19186  0.74808  0.96541  Biso   1.000  H
  H155     1.0000 0.15647  0.79427  0.93891  Biso   1.000  H
  O51      1.0000 0.21834  0.98176  0.93204  Biso   1.000  O
  N111     1.0000 0.33498  0.22429  0.97276  Biso   1.000  N
  H156     1.0000 0.36862  0.15981  0.93920  Biso   1.000  H
  H157     1.0000 0.44794  0.19502  0.96619  Biso   1.000  H
  C166     1.0000 0.32204  0.35089  0.99982  Biso   1.000  C
  H158     1.0000 0.44828  0.32520  0.00029  Biso   1.000  H
  O52      1.0000 0.23656  0.21834  0.06796  Biso   1.000  O
  N112     1.0000 0.26462  0.32383  0.02749  Biso   1.000  N
  N113     1.0000 0.26466  0.32390  0.02749  Biso   1.000  N
  C167     1.0000 0.78981  0.62979  0.03908  Biso   1.000  C
  N114     1.0000 0.88933  0.66500  0.97276  Biso   1.000  N
  H159     1.0000 0.87689  0.55166  0.00029  Biso   1.000  H
  C168     1.0000 0.97610  0.72857  0.95712  Biso   1.000  C
  C169     1.0000 0.27142  0.24753  0.95712  Biso   1.000  C
  N115     1.0000 0.26069  0.31834  0.97289  Biso   1.000  N
  H160     1.0000 0.37417  0.42505  0.99920  Biso   1.000  H
  H161     1.0000 0.37421  0.42512  0.99920  Biso   1.000  H
  C170     1.0000 0.21238  0.37459  0.03879  Biso   1.000  C
  N116     1.0000 0.73929  0.68162  0.02711  Biso   1.000  N
  H162     1.0000 0.79428  0.63779  0.06109  Biso   1.000  H
  H163     1.0000 0.74811  0.55616  0.03459  Biso   1.000  H
  H164     1.0000 0.74815  0.55624  0.03459  Biso   1.000  H
  C171     1.0000 0.78760  0.62537  0.96121  Biso   1.000  C
  O53      1.0000 0.97907  0.76805  0.93303  Biso   1.000  O
  O54      1.0000 0.23192  0.21103  0.93303  Biso   1.000  O
  C172     1.0000 0.21017  0.37017  0.96092  Biso   1.000  C
  N117     1.0000 0.11065  0.33496  0.02724  Biso   1.000  N
  H165     1.0000 0.25293  0.44791  0.03381  Biso   1.000  H
  H166     1.0000 0.20877  0.36857  0.06080  Biso   1.000  H
  C173     1.0000 0.72859  0.75250  0.04288  Biso   1.000  C
  C174     1.0000 0.67793  0.64907  0.00018  Biso   1.000  C
  N118     1.0000 0.73536  0.67613  0.97251  Biso   1.000  N
  H167     1.0000 0.79121  0.63139  0.93920  Biso   1.000  H
  H168     1.0000 0.74708  0.55212  0.96619  Biso   1.000  H
  H169     1.0000 0.25193  0.44379  0.96541  Biso   1.000  H
  H170     1.0000 0.20570  0.36217  0.93891  Biso   1.000  H
  N119     1.0000 0.10913  0.33259  0.97276  Biso   1.000  N
  C175     1.0000 0.08885  0.37215  0.99993  Biso   1.000  C
  C176     1.0000 0.08889  0.37223  0.99993  Biso   1.000  C
  C177     1.0000 0.02388  0.27139  0.04288  Biso   1.000  C
  N120     1.0000 0.66500  0.77567  0.02724  Biso   1.000  N
  O55      1.0000 0.76810  0.78901  0.06697  Biso   1.000  O
  N121     1.0000 0.66503  0.77575  0.02724  Biso   1.000  N
  C178     1.0000 0.62778  0.71668  0.99993  Biso   1.000  C
  H171     1.0000 0.62581  0.57491  0.00080  Biso   1.000  H
  C179     1.0000 0.72633  0.74823  0.95663  Biso   1.000  C
  C180     1.0000 0.02192  0.27368  0.95663  Biso   1.000  C
  C181     1.0000 0.97110  0.32200  0.00018  Biso   1.000  C
  H172     1.0000 0.12309  0.44829  0.99971  Biso   1.000  H
  N122     1.0000 0.94237  0.26072  0.02711  Biso   1.000  N
  O56      1.0000 0.02091  0.23191  0.06697  Biso   1.000  O
  C182     1.0000 0.62543  0.83779  0.03879  Biso   1.000  C
  N123     1.0000 0.66740  0.77651  0.97276  Biso   1.000  N
  H173     1.0000 0.55174  0.67483  0.99971  Biso   1.000  H
  O57      1.0000 0.76345  0.78169  0.93204  Biso   1.000  O
  N124     1.0000 0.94075  0.26461  0.97251  Biso   1.000  N
  O58      1.0000 0.01821  0.23656  0.93204  Biso   1.000  O
  H174     1.0000 0.94908  0.37421  0.00080  Biso   1.000  H
  C183     1.0000 0.84001  0.21019  0.03908  Biso   1.000  C
  N125     1.0000 0.67612  0.94076  0.02749  Biso   1.000  N
  H175     1.0000 0.55208  0.80501  0.03381  Biso   1.000  H
  H176     1.0000 0.63140  0.84023  0.06080  Biso   1.000  H
  C184     1.0000 0.62977  0.84000  0.96092  Biso   1.000  C
  C185     1.0000 0.83782  0.21240  0.96121  Biso   1.000  C
  N126     1.0000 0.77654  0.10912  0.02724  Biso   1.000  N
  H177     1.0000 0.80812  0.25188  0.03459  Biso   1.000  H
  H178     1.0000 0.84351  0.20569  0.06109  Biso   1.000  H
  C186     1.0000 0.64911  0.97109  0.99982  Biso   1.000  C
  C187     1.0000 0.74819  0.02193  0.04337  Biso   1.000  C
  N127     1.0000 0.68167  0.94236  0.97289  Biso   1.000  N
  H179     1.0000 0.63779  0.84350  0.93891  Biso   1.000  H
  H180     1.0000 0.55621  0.80814  0.96541  Biso   1.000  H
  N128     1.0000 0.77572  0.11065  0.97276  Biso   1.000  N
  H181     1.0000 0.80498  0.25287  0.96619  Biso   1.000  H
  H182     1.0000 0.84018  0.20882  0.93920  Biso   1.000  H
  C188     1.0000 0.71670  0.08885  0.00007  Biso   1.000  C
  C189     1.0000 0.71674  0.08892  0.00007  Biso   1.000  C
  H183     1.0000 0.57486  0.94906  0.99920  Biso   1.000  H
  O59      1.0000 0.78164  0.01819  0.06796  Biso   1.000  O
  C190     1.0000 0.75248  0.02391  0.95712  Biso   1.000  C
  H184     1.0000 0.67480  0.12307  0.00029  Biso   1.000  H
  O60      1.0000 0.78898  0.02086  0.93303  Biso   1.000  O
  O61      1.0000 0.64577  0.54435  0.76637  Biso   1.000  O
  C191     1.0000 0.64277  0.58086  0.79044  Biso   1.000  C
  N129     1.0000 0.55597  0.55761  0.80608  Biso   1.000  N
  N130     1.0000 0.72431  0.65166  0.80623  Biso   1.000  N
  C192     1.0000 0.45432  0.49557  0.79455  Biso   1.000  C
  C193     1.0000 0.57774  0.61660  0.83341  Biso   1.000  C
  C194     1.0000 0.69550  0.68421  0.83316  Biso   1.000  C
  C195     1.0000 0.82670  0.70357  0.79423  Biso   1.000  C
  N131     1.0000 0.40204  0.39260  0.80583  Biso   1.000  N
  H185     1.0000 0.41374  0.52834  0.79953  Biso   1.000  H
  H186     1.0000 0.45785  0.49313  0.77254  Biso   1.000  H
  N132     1.0000 0.55757  0.55685  0.86058  Biso   1.000  N
  H187     1.0000 0.54358  0.65852  0.83363  Biso   1.000  H
  N133     1.0000 0.72591  0.65723  0.86083  Biso   1.000  N
  H188     1.0000 0.71757  0.75844  0.83254  Biso   1.000  H
  N134     1.0000 0.89012  0.66592  0.80610  Biso   1.000  N
  H189     1.0000 0.85859  0.77712  0.79873  Biso   1.000  H
  H190     1.0000 0.82316  0.69556  0.77222  Biso   1.000  H
  C196     1.0000 0.39294  0.31143  0.78994  Biso   1.000  C
  C197     1.0000 0.34466  0.36219  0.83350  Biso   1.000  C
  C198     1.0000 0.45645  0.49336  0.87242  Biso   1.000  C
  C199     1.0000 0.64477  0.58512  0.87672  Biso   1.000  C
  C200     1.0000 0.82887  0.70791  0.87213  Biso   1.000  C
  C201     1.0000 0.95000  0.70555  0.83327  Biso   1.000  C
  C202     1.0000 0.91842  0.60700  0.78994  Biso   1.000  C
  O62      1.0000 0.43012  0.31516  0.76539  Biso   1.000  O
  N135     1.0000 0.33410  0.22423  0.80610  Biso   1.000  N
  C203     1.0000 0.29449  0.24443  0.83327  Biso   1.000  C
  N136     1.0000 0.40599  0.39100  0.86042  Biso   1.000  N
  H191     1.0000 0.29244  0.38421  0.83412  Biso   1.000  H
  H192     1.0000 0.41475  0.52522  0.86793  Biso   1.000  H
  H193     1.0000 0.46097  0.48985  0.89444  Biso   1.000  H
  O63      1.0000 0.64844  0.55166  0.90127  Biso   1.000  O
  N137     1.0000 0.89097  0.66828  0.86058  Biso   1.000  N
  H194     1.0000 0.86164  0.78123  0.86713  Biso   1.000  H
  H195     1.0000 0.82649  0.70197  0.89412  Biso   1.000  H
  H196     1.0000 0.99186  0.78161  0.83303  Biso   1.000  H
  C204     1.0000 0.01756  0.65532  0.83350  Biso   1.000  C
  O64      1.0000 0.88501  0.56988  0.76539  Biso   1.000  O
  N138     1.0000 0.99055  0.59801  0.80583  Biso   1.000  N
  C205     1.0000 0.29650  0.12317  0.79423  Biso   1.000  C
  N139     1.0000 0.33171  0.22263  0.86058  Biso   1.000  N
  H197     1.0000 0.21837  0.21021  0.83303  Biso   1.000  H
  C206     1.0000 0.39525  0.30944  0.87622  Biso   1.000  C
  C207     1.0000 0.91417  0.60471  0.87622  Biso   1.000  C
  N140     1.0000 0.98501  0.59404  0.86042  Biso   1.000  N
  H198     1.0000 0.09178  0.70753  0.83412  Biso   1.000  H
  C208     1.0000 0.04124  0.54572  0.79455  Biso   1.000  C
  N141     1.0000 0.34833  0.07264  0.80623  Biso   1.000  N
  H199     1.0000 0.22288  0.08140  0.79873  Biso   1.000  H
  H200     1.0000 0.30449  0.12766  0.77222  Biso   1.000  H
  C209     1.0000 0.29210  0.12096  0.87213  Biso   1.000  C
  O65      1.0000 0.43476  0.31242  0.90031  Biso   1.000  O
  O66      1.0000 0.87767  0.56523  0.90031  Biso   1.000  O
  C210     1.0000 0.03684  0.54351  0.87242  Biso   1.000  C
  N142     1.0000 0.00163  0.44405  0.80608  Biso   1.000  N
  H201     1.0000 0.11459  0.58627  0.79953  Biso   1.000  H
  H202     1.0000 0.03529  0.54214  0.77254  Biso   1.000  H
  C211     1.0000 0.41913  0.06189  0.79044  Biso   1.000  C
  C212     1.0000 0.31574  0.01128  0.83316  Biso   1.000  C
  N143     1.0000 0.34278  0.06867  0.86083  Biso   1.000  N
  H203     1.0000 0.21875  0.08041  0.86713  Biso   1.000  H
  H204     1.0000 0.29805  0.12454  0.89412  Biso   1.000  H
  N144     1.0000 0.99924  0.44244  0.86058  Biso   1.000  N
  H205     1.0000 0.11042  0.58520  0.86793  Biso   1.000  H
  H206     1.0000 0.02885  0.53901  0.89444  Biso   1.000  H
  C213     1.0000 0.93809  0.35723  0.79044  Biso   1.000  C
  C214     1.0000 0.03885  0.42225  0.83341  Biso   1.000  C
  O67      1.0000 0.45564  0.10137  0.76637  Biso   1.000  O
  N145     1.0000 0.44237  0.99840  0.80608  Biso   1.000  N
  C215     1.0000 0.38334  0.96113  0.83341  Biso   1.000  C
  H207     1.0000 0.24155  0.95915  0.83254  Biso   1.000  H
  C216     1.0000 0.41488  0.05960  0.87672  Biso   1.000  C
  C217     1.0000 0.94040  0.35525  0.87672  Biso   1.000  C
  N146     1.0000 0.92734  0.27568  0.80623  Biso   1.000  N
  O68      1.0000 0.89858  0.35426  0.76637  Biso   1.000  O
  C218     1.0000 0.98868  0.30449  0.83316  Biso   1.000  C
  H208     1.0000 0.11497  0.45647  0.83363  Biso   1.000  H
  C219     1.0000 0.50447  0.95877  0.79455  Biso   1.000  C
  N147     1.0000 0.44318  0.00069  0.86058  Biso   1.000  N
  H209     1.0000 0.34148  0.88506  0.83363  Biso   1.000  H
  O69      1.0000 0.44833  0.09680  0.90127  Biso   1.000  O
  N148     1.0000 0.93130  0.27408  0.86083  Biso   1.000  N
  O70      1.0000 0.90322  0.35152  0.90127  Biso   1.000  O
  C220     1.0000 0.87689  0.17332  0.79423  Biso   1.000  C
  H210     1.0000 0.04090  0.28246  0.83254  Biso   1.000  H
  N149     1.0000 0.60743  0.00945  0.80583  Biso   1.000  N
  H211     1.0000 0.47170  0.88544  0.79953  Biso   1.000  H
  H212     1.0000 0.50684  0.96471  0.77254  Biso   1.000  H
  C221     1.0000 0.50664  0.96311  0.87242  Biso   1.000  C
  C222     1.0000 0.87902  0.17111  0.87213  Biso   1.000  C
  N150     1.0000 0.77577  0.10983  0.80610  Biso   1.000  N
  H213     1.0000 0.91858  0.14146  0.79873  Biso   1.000  H
  H214     1.0000 0.87237  0.17683  0.77222  Biso   1.000  H
  C223     1.0000 0.68857  0.08155  0.78994  Biso   1.000  C
  C224     1.0000 0.63784  0.98247  0.83350  Biso   1.000  C
  N151     1.0000 0.60903  0.01501  0.86042  Biso   1.000  N
  H215     1.0000 0.47481  0.88956  0.86793  Biso   1.000  H
  H216     1.0000 0.51018  0.97111  0.89444  Biso   1.000  H
  N152     1.0000 0.77737  0.10907  0.86058  Biso   1.000  N
  H217     1.0000 0.91960  0.13834  0.86713  Biso   1.000  H
  H218     1.0000 0.87549  0.17355  0.89412  Biso   1.000  H
  C225     1.0000 0.75556  0.05000  0.83327  Biso   1.000  C
  O71      1.0000 0.68490  0.11501  0.76539  Biso   1.000  O
  H219     1.0000 0.61577  0.90823  0.83412  Biso   1.000  H
  C226     1.0000 0.69057  0.08582  0.87622  Biso   1.000  C
  H220     1.0000 0.78975  0.00816  0.83303  Biso   1.000  H
  O72      1.0000 0.68757  0.12233  0.90031  Biso   1.000  O
