data_image0
_cell_length_a       29.588
_cell_length_b       17.891
_cell_length_c       15.725
_cell_angle_alpha    90
_cell_angle_beta     103.5
_cell_angle_gamma    90

_symmetry_space_group_name_H-M    "P 1"
_symmetry_int_tables_number       1

loop_
  _symmetry_equiv_pos_as_xyz
  'x, y, z'

loop_
  _atom_site_label
  _atom_site_occupancy
  _atom_site_fract_x
  _atom_site_fract_y
  _atom_site_fract_z
  _atom_site_thermal_displace_type
  _atom_site_B_iso_or_equiv
  _atom_site_type_symbol
  O1       1.0000 0.42755  0.16763  0.79415  Biso   1.000  O
  C1       1.0000 0.42273  0.19378  0.86321  Biso   1.000  C
  N1       1.0000 0.38714  0.17892  0.90298  Biso   1.000  N
  O2       1.0000 0.42754  0.16763  0.79409  Biso   1.000  O
  N2       1.0000 0.45257  0.24342  0.91410  Biso   1.000  N
  C2       1.0000 0.34616  0.13672  0.85870  Biso   1.000  C
  C3       1.0000 0.38912  0.22469  0.98022  Biso   1.000  C
  C4       1.0000 0.43566  0.27008  0.98865  Biso   1.000  C
  C5       1.0000 0.43565  0.27008  0.98859  Biso   1.000  C
  C6       1.0000 0.49121  0.27528  0.88473  Biso   1.000  C
  N3       1.0000 0.34317  0.06232  0.89291  Biso   1.000  N
  H1       1.0000 0.34621  0.13280  0.79592  Biso   1.000  H
  H2       1.0000 0.31809  0.16500  0.86315  Biso   1.000  H
  H3       1.0000 0.31811  0.16500  0.86308  Biso   1.000  H
  C7       1.0000 0.34733  0.27701  0.97112  Biso   1.000  C
  N4       1.0000 0.39802  0.18188  0.06125  Biso   1.000  N
  N5       1.0000 0.39802  0.18188  0.06118  Biso   1.000  N
  C8       1.0000 0.42776  0.35448  0.98734  Biso   1.000  C
  C9       1.0000 0.42778  0.35448  0.98728  Biso   1.000  C
  N6       1.0000 0.46408  0.24459  0.07282  Biso   1.000  N
  H4       1.0000 0.49180  0.32989  0.89500  Biso   1.000  H
  N7       1.0000 0.53592  0.24459  0.92724  Biso   1.000  N
  N8       1.0000 0.53591  0.24459  0.92718  Biso   1.000  N
  H5       1.0000 0.48611  0.26729  0.82077  Biso   1.000  H
  C10      1.0000 0.35141  0.00000  0.84843  Biso   1.000  C
  C11      1.0000 0.35140  0.00000  0.84837  Biso   1.000  C
  C12      1.0000 0.32499  0.04432  0.96890  Biso   1.000  C
  H6       1.0000 0.34181  0.30300  0.91403  Biso   1.000  H
  H7       1.0000 0.31931  0.24711  0.97217  Biso   1.000  H
  C13      1.0000 0.35490  0.33430  0.04378  Biso   1.000  C
  C14      1.0000 0.36437  0.13610  0.09022  Biso   1.000  C
  C15      1.0000 0.44084  0.19619  0.11487  Biso   1.000  C
  C16      1.0000 0.40030  0.37673  0.05451  Biso   1.000  C
  H8       1.0000 0.41049  0.37007  0.92822  Biso   1.000  H
  H9       1.0000 0.41052  0.37007  0.92822  Biso   1.000  H
  H10      1.0000 0.45811  0.38053  0.00069  Biso   1.000  H
  C17      1.0000 0.50880  0.27528  0.11533  Biso   1.000  C
  C18      1.0000 0.55915  0.19619  0.88512  Biso   1.000  C
  C19      1.0000 0.56434  0.27008  0.01141  Biso   1.000  C
  C20      1.0000 0.56438  0.27008  0.01141  Biso   1.000  C
  O3       1.0000 0.36313  0.00000  0.77833  Biso   1.000  O
  N9       1.0000 0.34317  0.93768  0.89291  Biso   1.000  N
  C21      1.0000 0.32499  0.95568  0.96890  Biso   1.000  C
  C22      1.0000 0.27720  0.07602  0.96400  Biso   1.000  C
  N10      1.0000 0.35755  0.06210  0.05131  Biso   1.000  N
  H11      1.0000 0.35461  0.30881  0.09951  Biso   1.000  H
  H12      1.0000 0.32882  0.37041  0.03162  Biso   1.000  H
  H13      1.0000 0.37431  0.13062  0.15451  Biso   1.000  H
  H14      1.0000 0.33419  0.16260  0.07688  Biso   1.000  H
  O4       1.0000 0.45512  0.17081  0.18851  Biso   1.000  O
  H15      1.0000 0.41971  0.36762  0.11402  Biso   1.000  H
  H16      1.0000 0.39352  0.43100  0.04915  Biso   1.000  H
  H17      1.0000 0.39351  0.43100  0.04908  Biso   1.000  H
  N11      1.0000 0.54743  0.24342  0.08590  Biso   1.000  N
  H18      1.0000 0.51389  0.26729  0.17923  Biso   1.000  H
  H19      1.0000 0.51392  0.26729  0.17923  Biso   1.000  H
  H20      1.0000 0.50819  0.32989  0.10500  Biso   1.000  H
  N12      1.0000 0.60198  0.18188  0.93882  Biso   1.000  N
  O5       1.0000 0.54489  0.17081  0.81155  Biso   1.000  O
  O6       1.0000 0.54488  0.17081  0.81148  Biso   1.000  O
  C23      1.0000 0.57225  0.35448  0.01272  Biso   1.000  C
  C24      1.0000 0.61087  0.22469  0.01978  Biso   1.000  C
  C25      1.0000 0.34616  0.86328  0.85870  Biso   1.000  C
  C26      1.0000 0.27720  0.92398  0.96400  Biso   1.000  C
  N13      1.0000 0.35755  0.93790  0.05131  Biso   1.000  N
  H21      1.0000 0.27782  0.13079  0.95562  Biso   1.000  H
  C27      1.0000 0.24089  0.04069  0.88787  Biso   1.000  C
  H22      1.0000 0.26820  0.06629  0.01978  Biso   1.000  H
  C28      1.0000 0.37431  0.00000  0.09865  Biso   1.000  C
  C29      1.0000 0.37430  0.00000  0.09859  Biso   1.000  C
  C30      1.0000 0.57726  0.19378  0.13678  Biso   1.000  C
  C31      1.0000 0.63563  0.13610  0.90984  Biso   1.000  C
  C32      1.0000 0.63562  0.13610  0.90978  Biso   1.000  C
  N14      1.0000 0.61285  0.17892  0.09702  Biso   1.000  N
  C33      1.0000 0.65267  0.27701  0.02894  Biso   1.000  C
  C34      1.0000 0.65266  0.27701  0.02887  Biso   1.000  C
  H23      1.0000 0.54189  0.38053  0.99931  Biso   1.000  H
  C35      1.0000 0.59970  0.37673  0.94549  Biso   1.000  C
  H24      1.0000 0.58951  0.37007  0.07178  Biso   1.000  H
  H25      1.0000 0.31809  0.83500  0.86315  Biso   1.000  H
  H26      1.0000 0.34621  0.86720  0.79592  Biso   1.000  H
  N15      1.0000 0.38714  0.82108  0.90298  Biso   1.000  N
  H27      1.0000 0.31811  0.83500  0.86308  Biso   1.000  H
  H28      1.0000 0.27782  0.86921  0.95562  Biso   1.000  H
  C36      1.0000 0.24089  0.95931  0.88787  Biso   1.000  C
  H29      1.0000 0.26820  0.93371  0.01978  Biso   1.000  H
  C37      1.0000 0.36437  0.86390  0.09022  Biso   1.000  C
  H30      1.0000 0.20961  0.05852  0.89101  Biso   1.000  H
  H31      1.0000 0.24690  0.05852  0.83202  Biso   1.000  H
  O7       1.0000 0.39877  0.00000  0.17373  Biso   1.000  O
  O8       1.0000 0.39879  0.00000  0.17367  Biso   1.000  O
  O9       1.0000 0.57246  0.16763  0.20591  Biso   1.000  O
  H32      1.0000 0.66580  0.16260  0.92312  Biso   1.000  H
  N16      1.0000 0.64244  0.06210  0.94869  Biso   1.000  N
  H33      1.0000 0.62568  0.13062  0.84549  Biso   1.000  H
  C38      1.0000 0.65384  0.13672  0.14136  Biso   1.000  C
  C39      1.0000 0.65383  0.13672  0.14130  Biso   1.000  C
  C40      1.0000 0.64510  0.33430  0.95621  Biso   1.000  C
  H34      1.0000 0.65820  0.30300  0.08603  Biso   1.000  H
  H35      1.0000 0.68072  0.24711  0.02783  Biso   1.000  H
  H36      1.0000 0.60649  0.43100  0.95092  Biso   1.000  H
  H37      1.0000 0.58028  0.36762  0.88597  Biso   1.000  H
  C41      1.0000 0.42273  0.80622  0.86321  Biso   1.000  C
  C42      1.0000 0.38912  0.77531  0.98022  Biso   1.000  C
  H38      1.0000 0.20961  0.94148  0.89101  Biso   1.000  H
  H39      1.0000 0.24690  0.94148  0.83202  Biso   1.000  H
  N17      1.0000 0.39802  0.81812  0.06125  Biso   1.000  N
  N18      1.0000 0.39802  0.81812  0.06118  Biso   1.000  N
  H40      1.0000 0.37431  0.86938  0.15451  Biso   1.000  H
  H41      1.0000 0.33419  0.83740  0.07688  Biso   1.000  H
  C43      1.0000 0.62569  0.00000  0.90141  Biso   1.000  C
  C44      1.0000 0.67501  0.04432  0.03110  Biso   1.000  C
  H42      1.0000 0.68192  0.16500  0.13691  Biso   1.000  H
  N19      1.0000 0.65682  0.06232  0.10709  Biso   1.000  N
  H43      1.0000 0.65378  0.13280  0.20408  Biso   1.000  H
  H44      1.0000 0.67119  0.37041  0.96844  Biso   1.000  H
  H45      1.0000 0.64538  0.30881  0.90049  Biso   1.000  H
  H46      1.0000 0.67121  0.37041  0.96838  Biso   1.000  H
  O10      1.0000 0.42755  0.83237  0.79415  Biso   1.000  O
  O11      1.0000 0.42754  0.83237  0.79409  Biso   1.000  O
  N20      1.0000 0.45257  0.75658  0.91410  Biso   1.000  N
  C45      1.0000 0.43566  0.72992  0.98865  Biso   1.000  C
  C46      1.0000 0.34733  0.72299  0.97112  Biso   1.000  C
  C47      1.0000 0.43565  0.72992  0.98859  Biso   1.000  C
  C48      1.0000 0.44084  0.80381  0.11487  Biso   1.000  C
  N21      1.0000 0.64244  0.93790  0.94869  Biso   1.000  N
  O12      1.0000 0.60124  0.00000  0.82633  Biso   1.000  O
  C49      1.0000 0.67501  0.95568  0.03110  Biso   1.000  C
  C50      1.0000 0.72280  0.07602  0.03600  Biso   1.000  C
  C51      1.0000 0.64859  0.00000  0.15163  Biso   1.000  C
  C52      1.0000 0.49121  0.72472  0.88473  Biso   1.000  C
  C53      1.0000 0.42776  0.64552  0.98734  Biso   1.000  C
  C54      1.0000 0.42778  0.64552  0.98728  Biso   1.000  C
  N22      1.0000 0.46408  0.75541  0.07282  Biso   1.000  N
  H47      1.0000 0.34181  0.69700  0.91403  Biso   1.000  H
  H48      1.0000 0.31931  0.75289  0.97217  Biso   1.000  H
  C55      1.0000 0.35490  0.66570  0.04378  Biso   1.000  C
  O13      1.0000 0.45512  0.82919  0.18851  Biso   1.000  O
  C56      1.0000 0.63563  0.86390  0.90984  Biso   1.000  C
  C57      1.0000 0.63562  0.86390  0.90978  Biso   1.000  C
  N23      1.0000 0.65682  0.93768  0.10709  Biso   1.000  N
  C58      1.0000 0.72280  0.92398  0.03600  Biso   1.000  C
  H49      1.0000 0.73179  0.06629  0.98022  Biso   1.000  H
  H50      1.0000 0.72219  0.13079  0.04444  Biso   1.000  H
  C59      1.0000 0.75911  0.04069  0.11213  Biso   1.000  C
  H51      1.0000 0.72221  0.13079  0.04437  Biso   1.000  H
  O14      1.0000 0.63688  0.00000  0.22174  Biso   1.000  O
  O15      1.0000 0.63690  0.00000  0.22167  Biso   1.000  O
  N24      1.0000 0.53592  0.75541  0.92724  Biso   1.000  N
  H52      1.0000 0.49180  0.67011  0.89500  Biso   1.000  H
  N25      1.0000 0.53591  0.75541  0.92718  Biso   1.000  N
  H53      1.0000 0.48611  0.73271  0.82077  Biso   1.000  H
  H54      1.0000 0.41049  0.62993  0.92822  Biso   1.000  H
  H55      1.0000 0.41052  0.62993  0.92822  Biso   1.000  H
  C60      1.0000 0.40030  0.62327  0.05451  Biso   1.000  C
  H56      1.0000 0.45811  0.61947  0.00069  Biso   1.000  H
  C61      1.0000 0.50880  0.72472  0.11533  Biso   1.000  C
  H57      1.0000 0.35461  0.69119  0.09951  Biso   1.000  H
  H58      1.0000 0.32882  0.62959  0.03162  Biso   1.000  H
  N26      1.0000 0.60198  0.81812  0.93882  Biso   1.000  N
  H59      1.0000 0.66580  0.83740  0.92312  Biso   1.000  H
  H60      1.0000 0.62568  0.86938  0.84549  Biso   1.000  H
  C62      1.0000 0.65384  0.86328  0.14136  Biso   1.000  C
  C63      1.0000 0.65383  0.86328  0.14130  Biso   1.000  C
  H61      1.0000 0.73179  0.93371  0.98022  Biso   1.000  H
  H62      1.0000 0.72219  0.86921  0.04444  Biso   1.000  H
  C64      1.0000 0.75911  0.95931  0.11213  Biso   1.000  C
  H63      1.0000 0.72221  0.86921  0.04437  Biso   1.000  H
  H64      1.0000 0.79039  0.05852  0.10899  Biso   1.000  H
  H65      1.0000 0.75309  0.05852  0.16798  Biso   1.000  H
  C65      1.0000 0.55915  0.80381  0.88512  Biso   1.000  C
  C66      1.0000 0.56434  0.72992  0.01141  Biso   1.000  C
  C67      1.0000 0.56438  0.72992  0.01141  Biso   1.000  C
  H66      1.0000 0.41971  0.63238  0.11402  Biso   1.000  H
  H67      1.0000 0.39352  0.56900  0.04915  Biso   1.000  H
  H68      1.0000 0.39351  0.56900  0.04908  Biso   1.000  H
  N27      1.0000 0.54743  0.75658  0.08590  Biso   1.000  N
  H69      1.0000 0.51389  0.73271  0.17923  Biso   1.000  H
  H70      1.0000 0.51392  0.73271  0.17923  Biso   1.000  H
  H71      1.0000 0.50819  0.67011  0.10500  Biso   1.000  H
  C68      1.0000 0.61087  0.77531  0.01978  Biso   1.000  C
  N28      1.0000 0.61285  0.82108  0.09702  Biso   1.000  N
  H72      1.0000 0.68192  0.83500  0.13691  Biso   1.000  H
  H73      1.0000 0.65378  0.86720  0.20408  Biso   1.000  H
  H74      1.0000 0.79039  0.94148  0.10899  Biso   1.000  H
  H75      1.0000 0.75309  0.94148  0.16798  Biso   1.000  H
  O16      1.0000 0.54489  0.82919  0.81155  Biso   1.000  O
  O17      1.0000 0.54488  0.82919  0.81148  Biso   1.000  O
  C69      1.0000 0.57225  0.64552  0.01272  Biso   1.000  C
  C70      1.0000 0.57726  0.80622  0.13678  Biso   1.000  C
  C71      1.0000 0.65267  0.72299  0.02894  Biso   1.000  C
  C72      1.0000 0.65266  0.72299  0.02887  Biso   1.000  C
  H76      1.0000 0.54189  0.61947  0.99931  Biso   1.000  H
  C73      1.0000 0.59970  0.62327  0.94549  Biso   1.000  C
  H77      1.0000 0.58951  0.62993  0.07178  Biso   1.000  H
  O18      1.0000 0.57246  0.83237  0.20591  Biso   1.000  O
  C74      1.0000 0.64510  0.66570  0.95621  Biso   1.000  C
  H78      1.0000 0.65820  0.69700  0.08603  Biso   1.000  H
  H79      1.0000 0.68072  0.75289  0.02783  Biso   1.000  H
  H80      1.0000 0.60649  0.56900  0.95092  Biso   1.000  H
  H81      1.0000 0.58028  0.63238  0.88597  Biso   1.000  H
  H82      1.0000 0.67119  0.62959  0.96844  Biso   1.000  H
  H83      1.0000 0.64538  0.69119  0.90049  Biso   1.000  H
  H84      1.0000 0.67121  0.62959  0.96838  Biso   1.000  H
  O19      1.0000 0.42752  0.33134  0.65093  Biso   1.000  O
  C75      1.0000 0.42258  0.30731  0.57650  Biso   1.000  C
  N29      1.0000 0.38581  0.32027  0.50757  Biso   1.000  N
  N30      1.0000 0.45365  0.26175  0.54877  Biso   1.000  N
  C76      1.0000 0.38811  0.27679  0.43001  Biso   1.000  C
  C77      1.0000 0.34588  0.36381  0.51758  Biso   1.000  C
  C78      1.0000 0.43580  0.23442  0.45970  Biso   1.000  C
  C79      1.0000 0.49378  0.23179  0.61071  Biso   1.000  C
  C80      1.0000 0.34736  0.22279  0.40228  Biso   1.000  C
  N31      1.0000 0.39522  0.32324  0.35813  Biso   1.000  N
  N32      1.0000 0.34306  0.43787  0.47958  Biso   1.000  N
  H85      1.0000 0.34690  0.36862  0.58082  Biso   1.000  H
  H86      1.0000 0.31719  0.33598  0.49030  Biso   1.000  H
  N33      1.0000 0.46233  0.26225  0.39842  Biso   1.000  N
  C81      1.0000 0.42958  0.15002  0.45531  Biso   1.000  C
  H87      1.0000 0.49440  0.17690  0.60318  Biso   1.000  H
  H88      1.0000 0.49030  0.24191  0.67068  Biso   1.000  H
  N34      1.0000 0.53767  0.26225  0.60161  Biso   1.000  N
  H89      1.0000 0.31850  0.25130  0.37801  Biso   1.000  H
  H90      1.0000 0.34288  0.19462  0.45388  Biso   1.000  H
  C82      1.0000 0.35666  0.16858  0.33367  Biso   1.000  C
  C83      1.0000 0.43791  0.31262  0.33969  Biso   1.000  C
  C84      1.0000 0.35874  0.36381  0.29842  Biso   1.000  C
  C85      1.0000 0.35251  0.50003  0.53151  Biso   1.000  C
  C86      1.0000 0.32129  0.45559  0.38880  Biso   1.000  C
  C87      1.0000 0.50623  0.23179  0.38933  Biso   1.000  C
  C88      1.0000 0.40238  0.12459  0.36519  Biso   1.000  C
  H91      1.0000 0.46050  0.12571  0.46892  Biso   1.000  H
  H92      1.0000 0.41291  0.13398  0.49992  Biso   1.000  H
  C89      1.0000 0.56419  0.23442  0.54027  Biso   1.000  C
  C90      1.0000 0.56208  0.31262  0.66028  Biso   1.000  C
  H93      1.0000 0.33051  0.13280  0.31817  Biso   1.000  H
  H94      1.0000 0.35812  0.19691  0.28030  Biso   1.000  H
  O20      1.0000 0.45150  0.34257  0.28004  Biso   1.000  O
  N35      1.0000 0.35016  0.43782  0.32811  Biso   1.000  N
  H95      1.0000 0.32961  0.33441  0.28920  Biso   1.000  H
  H96      1.0000 0.36709  0.36812  0.24120  Biso   1.000  H
  O21      1.0000 0.36553  0.50003  0.61110  Biso   1.000  O
  N36      1.0000 0.34306  0.56213  0.47958  Biso   1.000  N
  C91      1.0000 0.27252  0.42368  0.36048  Biso   1.000  C
  C92      1.0000 0.32129  0.54441  0.38880  Biso   1.000  C
  N37      1.0000 0.54635  0.26175  0.45119  Biso   1.000  N
  H97      1.0000 0.50560  0.17690  0.39678  Biso   1.000  H
  H98      1.0000 0.50969  0.24191  0.32929  Biso   1.000  H
  H99      1.0000 0.42190  0.13130  0.32262  Biso   1.000  H
  H100     1.0000 0.39519  0.07071  0.36748  Biso   1.000  H
  C93      1.0000 0.61189  0.27679  0.57003  Biso   1.000  C
  C94      1.0000 0.57042  0.15002  0.54472  Biso   1.000  C
  O22      1.0000 0.54849  0.34257  0.71992  Biso   1.000  O
  N38      1.0000 0.60478  0.32324  0.64190  Biso   1.000  N
  C95      1.0000 0.36440  0.50003  0.29038  Biso   1.000  C
  C96      1.0000 0.34588  0.63619  0.51758  Biso   1.000  C
  H101     1.0000 0.25988  0.43407  0.29757  Biso   1.000  H
  H102     1.0000 0.27371  0.36890  0.36873  Biso   1.000  H
  C97      1.0000 0.24028  0.45777  0.41333  Biso   1.000  C
  N39      1.0000 0.35016  0.56218  0.32811  Biso   1.000  N
  C98      1.0000 0.27252  0.57632  0.36048  Biso   1.000  C
  C99      1.0000 0.57742  0.30731  0.42353  Biso   1.000  C
  N40      1.0000 0.61419  0.32027  0.49240  Biso   1.000  N
  C100     1.0000 0.65263  0.22279  0.59769  Biso   1.000  C
  H103     1.0000 0.53950  0.12571  0.53111  Biso   1.000  H
  H104     1.0000 0.58709  0.13398  0.50011  Biso   1.000  H
  C101     1.0000 0.59761  0.12459  0.63477  Biso   1.000  C
  C102     1.0000 0.64126  0.36381  0.70161  Biso   1.000  C
  O23      1.0000 0.38547  0.50003  0.23217  Biso   1.000  O
  N41      1.0000 0.38581  0.67973  0.50757  Biso   1.000  N
  H105     1.0000 0.34690  0.63138  0.58082  Biso   1.000  H
  H106     1.0000 0.31719  0.66402  0.49030  Biso   1.000  H
  H107     1.0000 0.24989  0.43989  0.47448  Biso   1.000  H
  H108     1.0000 0.20821  0.43989  0.38887  Biso   1.000  H
  C103     1.0000 0.24028  0.54223  0.41333  Biso   1.000  C
  C104     1.0000 0.35874  0.63619  0.29842  Biso   1.000  C
  H109     1.0000 0.25988  0.56593  0.29757  Biso   1.000  H
  H110     1.0000 0.27371  0.63110  0.36873  Biso   1.000  H
  O24      1.0000 0.57248  0.33134  0.34911  Biso   1.000  O
  C105     1.0000 0.65411  0.36381  0.48239  Biso   1.000  C
  H111     1.0000 0.68151  0.25130  0.62202  Biso   1.000  H
  H112     1.0000 0.65711  0.19462  0.54609  Biso   1.000  H
  C106     1.0000 0.64333  0.16858  0.66630  Biso   1.000  C
  H113     1.0000 0.57810  0.13130  0.67741  Biso   1.000  H
  H114     1.0000 0.60480  0.07071  0.63248  Biso   1.000  H
  N42      1.0000 0.64984  0.43782  0.67192  Biso   1.000  N
  H115     1.0000 0.67038  0.33441  0.71077  Biso   1.000  H
  H116     1.0000 0.63291  0.36812  0.75877  Biso   1.000  H
  C107     1.0000 0.42258  0.69269  0.57650  Biso   1.000  C
  C108     1.0000 0.38811  0.72321  0.43001  Biso   1.000  C
  H117     1.0000 0.24989  0.56011  0.47448  Biso   1.000  H
  H118     1.0000 0.20821  0.56011  0.38887  Biso   1.000  H
  N43      1.0000 0.39522  0.67676  0.35813  Biso   1.000  N
  H119     1.0000 0.32961  0.66559  0.28920  Biso   1.000  H
  H120     1.0000 0.36709  0.63188  0.24120  Biso   1.000  H
  N44      1.0000 0.65693  0.43787  0.52039  Biso   1.000  N
  H121     1.0000 0.65310  0.36862  0.41921  Biso   1.000  H
  H122     1.0000 0.68282  0.33598  0.50973  Biso   1.000  H
  H123     1.0000 0.66949  0.13280  0.68180  Biso   1.000  H
  H124     1.0000 0.64192  0.19691  0.71973  Biso   1.000  H
  C109     1.0000 0.67871  0.45559  0.61123  Biso   1.000  C
  C110     1.0000 0.63559  0.50003  0.70959  Biso   1.000  C
  O25      1.0000 0.42752  0.66866  0.65093  Biso   1.000  O
  N45      1.0000 0.45365  0.73825  0.54877  Biso   1.000  N
  C111     1.0000 0.43580  0.76558  0.45970  Biso   1.000  C
  C112     1.0000 0.34736  0.77721  0.40228  Biso   1.000  C
  C113     1.0000 0.43791  0.68738  0.33969  Biso   1.000  C
  C114     1.0000 0.64749  0.50003  0.46853  Biso   1.000  C
  C115     1.0000 0.67871  0.54441  0.61123  Biso   1.000  C
  C116     1.0000 0.72747  0.42368  0.63948  Biso   1.000  C
  O26      1.0000 0.61452  0.50003  0.76780  Biso   1.000  O
  N46      1.0000 0.64984  0.56218  0.67192  Biso   1.000  N
  C117     1.0000 0.49378  0.76821  0.61071  Biso   1.000  C
  N47      1.0000 0.46233  0.73775  0.39842  Biso   1.000  N
  C118     1.0000 0.42958  0.84998  0.45531  Biso   1.000  C
  H125     1.0000 0.31850  0.74870  0.37801  Biso   1.000  H
  H126     1.0000 0.34288  0.80538  0.45388  Biso   1.000  H
  C119     1.0000 0.35666  0.83142  0.33367  Biso   1.000  C
  O27      1.0000 0.45150  0.65743  0.28004  Biso   1.000  O
  O28      1.0000 0.63446  0.50003  0.38887  Biso   1.000  O
  N48      1.0000 0.65693  0.56213  0.52039  Biso   1.000  N
  C120     1.0000 0.72747  0.57632  0.63948  Biso   1.000  C
  H127     1.0000 0.74011  0.43407  0.70240  Biso   1.000  H
  H128     1.0000 0.72629  0.36890  0.63131  Biso   1.000  H
  C121     1.0000 0.75973  0.45777  0.58670  Biso   1.000  C
  C122     1.0000 0.64126  0.63619  0.70161  Biso   1.000  C
  N49      1.0000 0.53767  0.73775  0.60161  Biso   1.000  N
  H129     1.0000 0.49440  0.82310  0.60318  Biso   1.000  H
  H130     1.0000 0.49030  0.75809  0.67068  Biso   1.000  H
  C123     1.0000 0.50623  0.76821  0.38933  Biso   1.000  C
  H131     1.0000 0.46050  0.87429  0.46892  Biso   1.000  H
  H132     1.0000 0.41291  0.86602  0.49992  Biso   1.000  H
  C124     1.0000 0.40238  0.87541  0.36519  Biso   1.000  C
  H133     1.0000 0.33051  0.86720  0.31817  Biso   1.000  H
  H134     1.0000 0.35812  0.80309  0.28030  Biso   1.000  H
  C125     1.0000 0.65411  0.63619  0.48239  Biso   1.000  C
  H135     1.0000 0.74011  0.56593  0.70240  Biso   1.000  H
  H136     1.0000 0.72629  0.63110  0.63131  Biso   1.000  H
  C126     1.0000 0.75973  0.54223  0.58670  Biso   1.000  C
  H137     1.0000 0.75010  0.43989  0.52549  Biso   1.000  H
  H138     1.0000 0.79178  0.43989  0.61110  Biso   1.000  H
  N50      1.0000 0.60478  0.67676  0.64190  Biso   1.000  N
  H139     1.0000 0.67038  0.66559  0.71077  Biso   1.000  H
  H140     1.0000 0.63291  0.63188  0.75877  Biso   1.000  H
  C127     1.0000 0.56419  0.76558  0.54027  Biso   1.000  C
  C128     1.0000 0.56208  0.68738  0.66028  Biso   1.000  C
  N51      1.0000 0.54635  0.73825  0.45119  Biso   1.000  N
  H141     1.0000 0.50560  0.82310  0.39678  Biso   1.000  H
  H142     1.0000 0.50969  0.75809  0.32929  Biso   1.000  H
  H143     1.0000 0.42190  0.86870  0.32262  Biso   1.000  H
  H144     1.0000 0.39519  0.92929  0.36748  Biso   1.000  H
  N52      1.0000 0.61419  0.67973  0.49240  Biso   1.000  N
  H145     1.0000 0.65310  0.63138  0.41921  Biso   1.000  H
  H146     1.0000 0.68282  0.66402  0.50973  Biso   1.000  H
  H147     1.0000 0.75010  0.56011  0.52549  Biso   1.000  H
  H148     1.0000 0.79178  0.56011  0.61110  Biso   1.000  H
  C129     1.0000 0.61189  0.72321  0.57003  Biso   1.000  C
  C130     1.0000 0.57042  0.84998  0.54472  Biso   1.000  C
  O29      1.0000 0.54849  0.65743  0.71992  Biso   1.000  O
  C131     1.0000 0.57742  0.69269  0.42353  Biso   1.000  C
  C132     1.0000 0.65263  0.77721  0.59769  Biso   1.000  C
  H149     1.0000 0.53950  0.87429  0.53111  Biso   1.000  H
  H150     1.0000 0.58709  0.86602  0.50011  Biso   1.000  H
  C133     1.0000 0.59761  0.87541  0.63477  Biso   1.000  C
  O30      1.0000 0.57248  0.66866  0.34911  Biso   1.000  O
  H151     1.0000 0.68151  0.74870  0.62202  Biso   1.000  H
  H152     1.0000 0.65711  0.80538  0.54609  Biso   1.000  H
  C134     1.0000 0.64333  0.83142  0.66630  Biso   1.000  C
  H153     1.0000 0.57810  0.86870  0.67741  Biso   1.000  H
  H154     1.0000 0.60480  0.92929  0.63248  Biso   1.000  H
  H155     1.0000 0.66949  0.86720  0.68180  Biso   1.000  H
  H156     1.0000 0.64192  0.80309  0.71973  Biso   1.000  H
  C135     1.0000 0.22280  0.42401  0.03600  Biso   1.000  C
  C136     1.0000 0.17501  0.45570  0.03110  Biso   1.000  C
  H157     1.0000 0.23179  0.43368  0.98022  Biso   1.000  H
  H158     1.0000 0.22219  0.36918  0.04444  Biso   1.000  H
  C137     1.0000 0.25911  0.45928  0.11213  Biso   1.000  C
  H159     1.0000 0.22221  0.36918  0.04437  Biso   1.000  H
  N53      1.0000 0.14244  0.43787  0.94869  Biso   1.000  N
  C138     1.0000 0.17501  0.54430  0.03110  Biso   1.000  C
  N54      1.0000 0.15682  0.43771  0.10709  Biso   1.000  N
  C139     1.0000 0.25911  0.54072  0.11213  Biso   1.000  C
  H160     1.0000 0.29039  0.44151  0.10899  Biso   1.000  H
  H161     1.0000 0.25309  0.44151  0.16798  Biso   1.000  H
  C140     1.0000 0.12569  0.50003  0.90141  Biso   1.000  C
  C141     1.0000 0.13563  0.36393  0.90984  Biso   1.000  C
  C142     1.0000 0.13562  0.36393  0.90978  Biso   1.000  C
  N55      1.0000 0.14244  0.56213  0.94869  Biso   1.000  N
  C143     1.0000 0.22280  0.57599  0.03600  Biso   1.000  C
  N56      1.0000 0.15682  0.56229  0.10709  Biso   1.000  N
  C144     1.0000 0.15384  0.36331  0.14136  Biso   1.000  C
  C145     1.0000 0.14859  0.50003  0.15163  Biso   1.000  C
  C146     1.0000 0.15383  0.36331  0.14130  Biso   1.000  C
  H162     1.0000 0.29039  0.55849  0.10899  Biso   1.000  H
  H163     1.0000 0.25309  0.55849  0.16798  Biso   1.000  H
  O31      1.0000 0.10124  0.50003  0.82633  Biso   1.000  O
  N57      1.0000 0.10198  0.31809  0.93882  Biso   1.000  N
  H164     1.0000 0.16580  0.33738  0.92312  Biso   1.000  H
  H165     1.0000 0.12568  0.36940  0.84549  Biso   1.000  H
  C147     1.0000 0.13563  0.63607  0.90984  Biso   1.000  C
  C148     1.0000 0.13562  0.63607  0.90978  Biso   1.000  C
  C149     1.0000 0.15384  0.63669  0.14136  Biso   1.000  C
  C150     1.0000 0.15383  0.63669  0.14130  Biso   1.000  C
  H166     1.0000 0.23179  0.56632  0.98022  Biso   1.000  H
  H167     1.0000 0.22219  0.63082  0.04444  Biso   1.000  H
  H168     1.0000 0.22221  0.63082  0.04437  Biso   1.000  H
  N58      1.0000 0.11285  0.32111  0.09702  Biso   1.000  N
  H169     1.0000 0.18192  0.33497  0.13691  Biso   1.000  H
  H170     1.0000 0.15378  0.36722  0.20408  Biso   1.000  H
  O32      1.0000 0.13688  0.50003  0.22174  Biso   1.000  O
  O33      1.0000 0.13690  0.50003  0.22167  Biso   1.000  O
  C151     1.0000 0.05915  0.30378  0.88512  Biso   1.000  C
  C152     1.0000 0.11087  0.27528  0.01978  Biso   1.000  C
  N59      1.0000 0.10198  0.68191  0.93882  Biso   1.000  N
  H171     1.0000 0.16580  0.66262  0.92312  Biso   1.000  H
  H172     1.0000 0.12568  0.63060  0.84549  Biso   1.000  H
  N60      1.0000 0.11285  0.67889  0.09702  Biso   1.000  N
  H173     1.0000 0.18192  0.66503  0.13691  Biso   1.000  H
  H174     1.0000 0.15378  0.63278  0.20408  Biso   1.000  H
  C153     1.0000 0.07726  0.30619  0.13678  Biso   1.000  C
  O34      1.0000 0.04489  0.32922  0.81155  Biso   1.000  O
  N61      1.0000 0.03592  0.25538  0.92724  Biso   1.000  N
  O35      1.0000 0.04488  0.32922  0.81148  Biso   1.000  O
  N62      1.0000 0.03591  0.25538  0.92718  Biso   1.000  N
  C154     1.0000 0.15267  0.22302  0.02894  Biso   1.000  C
  C155     1.0000 0.06438  0.22989  0.01141  Biso   1.000  C
  C156     1.0000 0.15266  0.22302  0.02887  Biso   1.000  C
  C157     1.0000 0.05915  0.69622  0.88512  Biso   1.000  C
  C158     1.0000 0.11087  0.72472  0.01978  Biso   1.000  C
  C159     1.0000 0.07726  0.69381  0.13678  Biso   1.000  C
  N63      1.0000 0.04743  0.25661  0.08590  Biso   1.000  N
  O36      1.0000 0.07246  0.33240  0.20591  Biso   1.000  O
  C160     1.0000 0.99121  0.22469  0.88473  Biso   1.000  C
  C161     1.0000 0.07225  0.14549  0.01272  Biso   1.000  C
  C162     1.0000 0.14510  0.16573  0.95621  Biso   1.000  C
  H175     1.0000 0.15820  0.19703  0.08603  Biso   1.000  H
  H176     1.0000 0.18068  0.25292  0.02783  Biso   1.000  H
  H177     1.0000 0.18072  0.25292  0.02783  Biso   1.000  H
  O37      1.0000 0.04489  0.67078  0.81155  Biso   1.000  O
  N64      1.0000 0.03592  0.74462  0.92724  Biso   1.000  N
  O38      1.0000 0.04488  0.67078  0.81148  Biso   1.000  O
  N65      1.0000 0.03591  0.74462  0.92718  Biso   1.000  N
  C163     1.0000 0.15267  0.77698  0.02894  Biso   1.000  C
  C164     1.0000 0.06438  0.77011  0.01141  Biso   1.000  C
  C165     1.0000 0.15266  0.77698  0.02887  Biso   1.000  C
  N66      1.0000 0.04743  0.74339  0.08590  Biso   1.000  N
  O39      1.0000 0.07246  0.66760  0.20591  Biso   1.000  O
  C166     1.0000 0.00880  0.22469  0.11533  Biso   1.000  C
  H178     1.0000 0.99180  0.17009  0.89500  Biso   1.000  H
  N67      1.0000 0.95257  0.25661  0.91410  Biso   1.000  N
  H179     1.0000 0.98611  0.23269  0.82077  Biso   1.000  H
  H180     1.0000 0.04189  0.11950  0.99931  Biso   1.000  H
  C167     1.0000 0.09970  0.12330  0.94549  Biso   1.000  C
  H181     1.0000 0.08951  0.12990  0.07178  Biso   1.000  H
  H182     1.0000 0.17119  0.12962  0.96844  Biso   1.000  H
  H183     1.0000 0.14538  0.19121  0.90049  Biso   1.000  H
  H184     1.0000 0.17121  0.12962  0.96838  Biso   1.000  H
  C168     1.0000 0.99121  0.77531  0.88473  Biso   1.000  C
  C169     1.0000 0.07225  0.85451  0.01272  Biso   1.000  C
  C170     1.0000 0.14510  0.83427  0.95621  Biso   1.000  C
  H185     1.0000 0.15820  0.80297  0.08603  Biso   1.000  H
  H186     1.0000 0.18068  0.74708  0.02783  Biso   1.000  H
  H187     1.0000 0.18072  0.74708  0.02783  Biso   1.000  H
  C171     1.0000 0.00880  0.77531  0.11533  Biso   1.000  C
  N68      1.0000 0.96408  0.25538  0.07282  Biso   1.000  N
  H188     1.0000 0.01389  0.23269  0.17923  Biso   1.000  H
  H189     1.0000 0.01392  0.23269  0.17923  Biso   1.000  H
  H190     1.0000 0.00819  0.17009  0.10500  Biso   1.000  H
  C172     1.0000 0.92273  0.30619  0.86321  Biso   1.000  C
  C173     1.0000 0.93566  0.22989  0.98865  Biso   1.000  C
  C174     1.0000 0.93565  0.22989  0.98859  Biso   1.000  C
  H191     1.0000 0.10649  0.06897  0.95092  Biso   1.000  H
  H192     1.0000 0.08028  0.13241  0.88597  Biso   1.000  H
  H193     1.0000 0.99180  0.82991  0.89500  Biso   1.000  H
  N69      1.0000 0.95257  0.74339  0.91410  Biso   1.000  N
  H194     1.0000 0.98611  0.76731  0.82077  Biso   1.000  H
  H195     1.0000 0.04189  0.88050  0.99931  Biso   1.000  H
  C175     1.0000 0.09970  0.87670  0.94549  Biso   1.000  C
  H196     1.0000 0.08951  0.87010  0.07178  Biso   1.000  H
  H197     1.0000 0.17119  0.87038  0.96844  Biso   1.000  H
  H198     1.0000 0.14538  0.80879  0.90049  Biso   1.000  H
  H199     1.0000 0.17121  0.87038  0.96838  Biso   1.000  H
  N70      1.0000 0.96408  0.74462  0.07282  Biso   1.000  N
  H200     1.0000 0.01389  0.76731  0.17923  Biso   1.000  H
  H201     1.0000 0.01392  0.76731  0.17923  Biso   1.000  H
  H202     1.0000 0.00819  0.82991  0.10500  Biso   1.000  H
  C176     1.0000 0.94084  0.30378  0.11487  Biso   1.000  C
  O40      1.0000 0.92755  0.33240  0.79415  Biso   1.000  O
  O41      1.0000 0.92754  0.33240  0.79409  Biso   1.000  O
  N71      1.0000 0.88714  0.32111  0.90298  Biso   1.000  N
  C177     1.0000 0.88912  0.27528  0.98022  Biso   1.000  C
  C178     1.0000 0.92776  0.14549  0.98734  Biso   1.000  C
  C179     1.0000 0.92778  0.14549  0.98728  Biso   1.000  C
  C180     1.0000 0.92273  0.69381  0.86321  Biso   1.000  C
  C181     1.0000 0.93566  0.77011  0.98865  Biso   1.000  C
  C182     1.0000 0.93565  0.77011  0.98859  Biso   1.000  C
  H203     1.0000 0.10649  0.93103  0.95092  Biso   1.000  H
  H204     1.0000 0.08028  0.86759  0.88597  Biso   1.000  H
  C183     1.0000 0.94084  0.69622  0.11487  Biso   1.000  C
  N72      1.0000 0.89802  0.31809  0.06125  Biso   1.000  N
  N73      1.0000 0.89802  0.31809  0.06118  Biso   1.000  N
  O42      1.0000 0.95512  0.32922  0.18851  Biso   1.000  O
  C184     1.0000 0.84616  0.36331  0.85870  Biso   1.000  C
  C185     1.0000 0.84733  0.22302  0.97112  Biso   1.000  C
  H205     1.0000 0.91049  0.12990  0.92822  Biso   1.000  H
  H206     1.0000 0.91052  0.12990  0.92822  Biso   1.000  H
  C186     1.0000 0.90030  0.12330  0.05451  Biso   1.000  C
  H207     1.0000 0.95811  0.11950  0.00069  Biso   1.000  H
  O43      1.0000 0.92755  0.66760  0.79415  Biso   1.000  O
  O44      1.0000 0.92754  0.66760  0.79409  Biso   1.000  O
  N74      1.0000 0.88714  0.67889  0.90298  Biso   1.000  N
  C187     1.0000 0.88912  0.72472  0.98022  Biso   1.000  C
  C188     1.0000 0.92776  0.85451  0.98734  Biso   1.000  C
  C189     1.0000 0.92778  0.85451  0.98728  Biso   1.000  C
  N75      1.0000 0.89802  0.68191  0.06125  Biso   1.000  N
  N76      1.0000 0.89802  0.68191  0.06118  Biso   1.000  N
  O45      1.0000 0.95512  0.67078  0.18851  Biso   1.000  O
  C190     1.0000 0.86437  0.36393  0.09022  Biso   1.000  C
  N77      1.0000 0.84317  0.43771  0.89291  Biso   1.000  N
  H208     1.0000 0.81809  0.33497  0.86315  Biso   1.000  H
  H209     1.0000 0.84621  0.36722  0.79592  Biso   1.000  H
  H210     1.0000 0.81811  0.33497  0.86308  Biso   1.000  H
  H211     1.0000 0.84181  0.19703  0.91403  Biso   1.000  H
  H212     1.0000 0.81931  0.25292  0.97217  Biso   1.000  H
  C191     1.0000 0.85490  0.16573  0.04378  Biso   1.000  C
  H213     1.0000 0.91971  0.13241  0.11402  Biso   1.000  H
  H214     1.0000 0.89352  0.06897  0.04915  Biso   1.000  H
  H215     1.0000 0.89351  0.06897  0.04908  Biso   1.000  H
  C192     1.0000 0.84616  0.63669  0.85870  Biso   1.000  C
  C193     1.0000 0.84733  0.77698  0.97112  Biso   1.000  C
  H216     1.0000 0.91049  0.87010  0.92822  Biso   1.000  H
  H217     1.0000 0.91052  0.87010  0.92822  Biso   1.000  H
  C194     1.0000 0.90030  0.87670  0.05451  Biso   1.000  C
  H218     1.0000 0.95811  0.88050  0.00069  Biso   1.000  H
  C195     1.0000 0.86437  0.63607  0.09022  Biso   1.000  C
  N78      1.0000 0.85755  0.43787  0.05131  Biso   1.000  N
  H219     1.0000 0.87431  0.36940  0.15451  Biso   1.000  H
  H220     1.0000 0.83419  0.33738  0.07688  Biso   1.000  H
  C196     1.0000 0.85141  0.50003  0.84843  Biso   1.000  C
  C197     1.0000 0.82499  0.45570  0.96890  Biso   1.000  C
  C198     1.0000 0.85140  0.50003  0.84837  Biso   1.000  C
  H221     1.0000 0.85461  0.19121  0.09951  Biso   1.000  H
  H222     1.0000 0.82882  0.12962  0.03162  Biso   1.000  H
  N79      1.0000 0.84317  0.56229  0.89291  Biso   1.000  N
  H223     1.0000 0.81809  0.66503  0.86315  Biso   1.000  H
  H224     1.0000 0.84621  0.63278  0.79592  Biso   1.000  H
  H225     1.0000 0.81811  0.66503  0.86308  Biso   1.000  H
  H226     1.0000 0.84181  0.80297  0.91403  Biso   1.000  H
  H227     1.0000 0.81931  0.74708  0.97217  Biso   1.000  H
  C199     1.0000 0.85490  0.83427  0.04378  Biso   1.000  C
  H228     1.0000 0.91971  0.86759  0.11402  Biso   1.000  H
  H229     1.0000 0.89352  0.93103  0.04915  Biso   1.000  H
  H230     1.0000 0.89351  0.93103  0.04908  Biso   1.000  H
  N80      1.0000 0.85755  0.56213  0.05131  Biso   1.000  N
  H231     1.0000 0.87431  0.63060  0.15451  Biso   1.000  H
  H232     1.0000 0.83419  0.66262  0.07688  Biso   1.000  H
  C200     1.0000 0.87431  0.50003  0.09865  Biso   1.000  C
  C201     1.0000 0.87430  0.50003  0.09859  Biso   1.000  C
  O46      1.0000 0.86313  0.50003  0.77833  Biso   1.000  O
  C202     1.0000 0.82499  0.54430  0.96890  Biso   1.000  C
  C203     1.0000 0.77720  0.42401  0.96400  Biso   1.000  C
  H233     1.0000 0.85461  0.80879  0.09951  Biso   1.000  H
  H234     1.0000 0.82882  0.87038  0.03162  Biso   1.000  H
  O47      1.0000 0.89877  0.50003  0.17373  Biso   1.000  O
  O48      1.0000 0.89879  0.50003  0.17367  Biso   1.000  O
  C204     1.0000 0.77720  0.57599  0.96400  Biso   1.000  C
  H235     1.0000 0.77782  0.36918  0.95562  Biso   1.000  H
  C205     1.0000 0.74089  0.45928  0.88787  Biso   1.000  C
  H236     1.0000 0.76820  0.43368  0.01978  Biso   1.000  H
  H237     1.0000 0.77782  0.63082  0.95562  Biso   1.000  H
  C206     1.0000 0.74089  0.54072  0.88787  Biso   1.000  C
  H238     1.0000 0.76820  0.56632  0.01978  Biso   1.000  H
  H239     1.0000 0.70961  0.44151  0.89101  Biso   1.000  H
  H240     1.0000 0.74690  0.44151  0.83202  Biso   1.000  H
  H241     1.0000 0.70961  0.55849  0.89101  Biso   1.000  H
  H242     1.0000 0.74690  0.55849  0.83202  Biso   1.000  H
  C207     1.0000 0.74028  0.04220  0.41333  Biso   1.000  C
  C208     1.0000 0.77252  0.07630  0.36048  Biso   1.000  C
  H243     1.0000 0.74989  0.06009  0.47448  Biso   1.000  H
  H244     1.0000 0.70821  0.06009  0.38887  Biso   1.000  H
  C209     1.0000 0.74028  0.95780  0.41333  Biso   1.000  C
  C210     1.0000 0.82129  0.04438  0.38880  Biso   1.000  C
  H245     1.0000 0.75988  0.06590  0.29757  Biso   1.000  H
  H246     1.0000 0.77371  0.13113  0.36873  Biso   1.000  H
  C211     1.0000 0.77252  0.92370  0.36048  Biso   1.000  C
  H247     1.0000 0.74989  0.93991  0.47448  Biso   1.000  H
  H248     1.0000 0.70821  0.93991  0.38887  Biso   1.000  H
  N81      1.0000 0.84306  0.06210  0.47958  Biso   1.000  N
  N82      1.0000 0.85016  0.06221  0.32811  Biso   1.000  N
  C212     1.0000 0.82129  0.95562  0.38880  Biso   1.000  C
  H249     1.0000 0.75988  0.93410  0.29757  Biso   1.000  H
  H250     1.0000 0.77371  0.86887  0.36873  Biso   1.000  H
  C213     1.0000 0.85251  0.00000  0.53151  Biso   1.000  C
  C214     1.0000 0.84588  0.13621  0.51758  Biso   1.000  C
  C215     1.0000 0.86440  0.00000  0.29038  Biso   1.000  C
  C216     1.0000 0.85874  0.13621  0.29842  Biso   1.000  C
  N83      1.0000 0.84306  0.93790  0.47958  Biso   1.000  N
  N84      1.0000 0.85016  0.93779  0.32811  Biso   1.000  N
  O49      1.0000 0.86553  0.00000  0.61110  Biso   1.000  O
  N85      1.0000 0.88581  0.17970  0.50757  Biso   1.000  N
  H251     1.0000 0.84690  0.13141  0.58082  Biso   1.000  H
  H252     1.0000 0.81719  0.16399  0.49030  Biso   1.000  H
  O50      1.0000 0.88547  0.00000  0.23217  Biso   1.000  O
  N86      1.0000 0.89522  0.17674  0.35813  Biso   1.000  N
  H253     1.0000 0.82961  0.16561  0.28920  Biso   1.000  H
  H254     1.0000 0.86709  0.13191  0.24120  Biso   1.000  H
  C217     1.0000 0.84588  0.86379  0.51758  Biso   1.000  C
  C218     1.0000 0.85874  0.86379  0.29842  Biso   1.000  C
  C219     1.0000 0.92258  0.19272  0.57650  Biso   1.000  C
  C220     1.0000 0.88811  0.22318  0.43001  Biso   1.000  C
  C221     1.0000 0.93791  0.18741  0.33969  Biso   1.000  C
  N87      1.0000 0.88581  0.82030  0.50757  Biso   1.000  N
  H255     1.0000 0.84690  0.86859  0.58082  Biso   1.000  H
  H256     1.0000 0.81719  0.83601  0.49030  Biso   1.000  H
  N88      1.0000 0.89522  0.82326  0.35813  Biso   1.000  N
  H257     1.0000 0.82961  0.83439  0.28920  Biso   1.000  H
  H258     1.0000 0.86709  0.86809  0.24120  Biso   1.000  H
  O51      1.0000 0.92752  0.16863  0.65093  Biso   1.000  O
  N89      1.0000 0.95365  0.23828  0.54877  Biso   1.000  N
  C222     1.0000 0.93580  0.26561  0.45970  Biso   1.000  C
  C223     1.0000 0.84736  0.27718  0.40228  Biso   1.000  C
  O52      1.0000 0.95150  0.15740  0.28004  Biso   1.000  O
  N90      1.0000 0.96233  0.23777  0.39842  Biso   1.000  N
  C224     1.0000 0.92258  0.80728  0.57650  Biso   1.000  C
  C225     1.0000 0.88811  0.77682  0.43001  Biso   1.000  C
  C226     1.0000 0.93791  0.81259  0.33969  Biso   1.000  C
  C227     1.0000 0.99378  0.26818  0.61071  Biso   1.000  C
  C228     1.0000 0.92958  0.35001  0.45531  Biso   1.000  C
  H259     1.0000 0.81850  0.24867  0.37801  Biso   1.000  H
  H260     1.0000 0.84288  0.30540  0.45388  Biso   1.000  H
  C229     1.0000 0.85666  0.33140  0.33367  Biso   1.000  C
  C230     1.0000 0.00623  0.26818  0.38933  Biso   1.000  C
  O53      1.0000 0.92752  0.83137  0.65093  Biso   1.000  O
  N91      1.0000 0.95365  0.76172  0.54877  Biso   1.000  N
  C231     1.0000 0.93580  0.73439  0.45970  Biso   1.000  C
  C232     1.0000 0.84736  0.72282  0.40228  Biso   1.000  C
  O54      1.0000 0.95150  0.84260  0.28004  Biso   1.000  O
  N92      1.0000 0.96233  0.76223  0.39842  Biso   1.000  N
  H261     1.0000 0.99440  0.32312  0.60318  Biso   1.000  H
  H262     1.0000 0.99030  0.25812  0.67068  Biso   1.000  H
  N93      1.0000 0.03767  0.23777  0.60161  Biso   1.000  N
  H263     1.0000 0.96050  0.37432  0.46892  Biso   1.000  H
  H264     1.0000 0.91291  0.36599  0.49992  Biso   1.000  H
  C233     1.0000 0.90238  0.37538  0.36519  Biso   1.000  C
  H265     1.0000 0.83051  0.36722  0.31817  Biso   1.000  H
  H266     1.0000 0.85812  0.30311  0.28030  Biso   1.000  H
  N94      1.0000 0.04635  0.23828  0.45119  Biso   1.000  N
  H267     1.0000 0.00560  0.32312  0.39678  Biso   1.000  H
  H268     1.0000 0.00969  0.25812  0.32929  Biso   1.000  H
  C234     1.0000 0.99378  0.73182  0.61071  Biso   1.000  C
  C235     1.0000 0.92958  0.64999  0.45531  Biso   1.000  C
  H269     1.0000 0.81850  0.75133  0.37801  Biso   1.000  H
  H270     1.0000 0.84288  0.69460  0.45388  Biso   1.000  H
  C236     1.0000 0.85666  0.66860  0.33367  Biso   1.000  C
  C237     1.0000 0.00623  0.73182  0.38933  Biso   1.000  C
  C238     1.0000 0.06419  0.26561  0.54027  Biso   1.000  C
  C239     1.0000 0.06208  0.18741  0.66028  Biso   1.000  C
  H271     1.0000 0.92190  0.36868  0.32262  Biso   1.000  H
  H272     1.0000 0.89519  0.42932  0.36748  Biso   1.000  H
  C240     1.0000 0.07742  0.19272  0.42353  Biso   1.000  C
  H273     1.0000 0.99440  0.67688  0.60318  Biso   1.000  H
  H274     1.0000 0.99030  0.74188  0.67068  Biso   1.000  H
  N95      1.0000 0.03767  0.76223  0.60161  Biso   1.000  N
  H275     1.0000 0.96050  0.62568  0.46892  Biso   1.000  H
  H276     1.0000 0.91291  0.63401  0.49992  Biso   1.000  H
  C241     1.0000 0.90238  0.62462  0.36519  Biso   1.000  C
  H277     1.0000 0.83051  0.63278  0.31817  Biso   1.000  H
  H278     1.0000 0.85812  0.69689  0.28030  Biso   1.000  H
  N96      1.0000 0.04635  0.76172  0.45119  Biso   1.000  N
  H279     1.0000 0.00560  0.67688  0.39678  Biso   1.000  H
  H280     1.0000 0.00969  0.74188  0.32929  Biso   1.000  H
  C242     1.0000 0.11189  0.22318  0.57003  Biso   1.000  C
  C243     1.0000 0.07042  0.35001  0.54472  Biso   1.000  C
  O55      1.0000 0.04849  0.15740  0.71992  Biso   1.000  O
  N97      1.0000 0.10478  0.17674  0.64190  Biso   1.000  N
  O56      1.0000 0.07248  0.16863  0.34911  Biso   1.000  O
  N98      1.0000 0.11419  0.17970  0.49240  Biso   1.000  N
  C244     1.0000 0.06419  0.73439  0.54027  Biso   1.000  C
  C245     1.0000 0.06208  0.81259  0.66028  Biso   1.000  C
  H281     1.0000 0.92190  0.63132  0.32262  Biso   1.000  H
  H282     1.0000 0.89519  0.57068  0.36748  Biso   1.000  H
  C246     1.0000 0.07742  0.80728  0.42353  Biso   1.000  C
  C247     1.0000 0.15263  0.27718  0.59769  Biso   1.000  C
  H283     1.0000 0.03950  0.37432  0.53111  Biso   1.000  H
  H284     1.0000 0.08709  0.36599  0.50011  Biso   1.000  H
  C248     1.0000 0.09761  0.37538  0.63477  Biso   1.000  C
  C249     1.0000 0.14126  0.13621  0.70161  Biso   1.000  C
  C250     1.0000 0.15411  0.13621  0.48239  Biso   1.000  C
  C251     1.0000 0.11189  0.77682  0.57003  Biso   1.000  C
  C252     1.0000 0.07042  0.64999  0.54472  Biso   1.000  C
  O57      1.0000 0.04849  0.84260  0.71992  Biso   1.000  O
  N99      1.0000 0.10478  0.82326  0.64190  Biso   1.000  N
  O58      1.0000 0.07248  0.83137  0.34911  Biso   1.000  O
  N100     1.0000 0.11419  0.82030  0.49240  Biso   1.000  N
  H285     1.0000 0.18151  0.24867  0.62202  Biso   1.000  H
  H286     1.0000 0.15711  0.30540  0.54609  Biso   1.000  H
  C253     1.0000 0.14333  0.33140  0.66630  Biso   1.000  C
  H287     1.0000 0.07810  0.36868  0.67741  Biso   1.000  H
  H288     1.0000 0.10480  0.42932  0.63248  Biso   1.000  H
  N101     1.0000 0.14984  0.06221  0.67192  Biso   1.000  N
  H289     1.0000 0.17038  0.16561  0.71077  Biso   1.000  H
  H290     1.0000 0.13291  0.13191  0.75877  Biso   1.000  H
  N102     1.0000 0.15693  0.06210  0.52039  Biso   1.000  N
  H291     1.0000 0.15310  0.13141  0.41921  Biso   1.000  H
  H292     1.0000 0.18282  0.16399  0.50973  Biso   1.000  H
  C254     1.0000 0.15263  0.72282  0.59769  Biso   1.000  C
  H293     1.0000 0.03950  0.62568  0.53111  Biso   1.000  H
  H294     1.0000 0.08709  0.63401  0.50011  Biso   1.000  H
  C255     1.0000 0.09761  0.62462  0.63477  Biso   1.000  C
  C256     1.0000 0.14126  0.86379  0.70161  Biso   1.000  C
  C257     1.0000 0.15411  0.86379  0.48239  Biso   1.000  C
  H295     1.0000 0.16949  0.36722  0.68180  Biso   1.000  H
  H296     1.0000 0.14192  0.30311  0.71973  Biso   1.000  H
  C258     1.0000 0.17871  0.04438  0.61123  Biso   1.000  C
  C259     1.0000 0.13559  0.00000  0.70959  Biso   1.000  C
  C260     1.0000 0.14749  0.00000  0.46853  Biso   1.000  C
  H297     1.0000 0.18151  0.75133  0.62202  Biso   1.000  H
  H298     1.0000 0.15711  0.69460  0.54609  Biso   1.000  H
  C261     1.0000 0.14333  0.66860  0.66630  Biso   1.000  C
  H299     1.0000 0.07810  0.63132  0.67741  Biso   1.000  H
  H300     1.0000 0.10480  0.57068  0.63248  Biso   1.000  H
  N103     1.0000 0.14984  0.93779  0.67192  Biso   1.000  N
  H301     1.0000 0.17038  0.83439  0.71077  Biso   1.000  H
  H302     1.0000 0.13291  0.86809  0.75877  Biso   1.000  H
  N104     1.0000 0.15693  0.93790  0.52039  Biso   1.000  N
  H303     1.0000 0.15310  0.86859  0.41921  Biso   1.000  H
  H304     1.0000 0.18282  0.83601  0.50973  Biso   1.000  H
  C262     1.0000 0.17871  0.95562  0.61123  Biso   1.000  C
  C263     1.0000 0.22747  0.07630  0.63948  Biso   1.000  C
  O59      1.0000 0.11452  0.00000  0.76780  Biso   1.000  O
  O60      1.0000 0.13446  0.00000  0.38887  Biso   1.000  O
  H305     1.0000 0.16949  0.63278  0.68180  Biso   1.000  H
  H306     1.0000 0.14192  0.69689  0.71973  Biso   1.000  H
  C264     1.0000 0.22747  0.92370  0.63948  Biso   1.000  C
  H307     1.0000 0.24011  0.06590  0.70240  Biso   1.000  H
  H308     1.0000 0.22629  0.13113  0.63131  Biso   1.000  H
  C265     1.0000 0.25973  0.04220  0.58670  Biso   1.000  C
  H309     1.0000 0.24011  0.93410  0.70240  Biso   1.000  H
  H310     1.0000 0.22629  0.86887  0.63131  Biso   1.000  H
  C266     1.0000 0.25973  0.95780  0.58670  Biso   1.000  C
  H311     1.0000 0.25010  0.06009  0.52549  Biso   1.000  H
  H312     1.0000 0.29178  0.06009  0.61110  Biso   1.000  H
  H313     1.0000 0.25010  0.93991  0.52549  Biso   1.000  H
  H314     1.0000 0.29178  0.93991  0.61110  Biso   1.000  H
  Ne1      1.0000 0.50000  0.50000  0.50000  Biso   1.000  Ne
  He1      1.0000 0.48170  0.50000  0.70866  Biso   1.000  He
  He2      1.0000 0.51790  0.50000  0.29955  Biso   1.000  He
  Ar1      1.0000 0.49999  0.50000  0.49999  Biso   1.000  Ar
  Ne2      1.0000 0.50211  0.00000  0.99664  Biso   1.000  Ne
  He3      1.0000 0.51743  0.00000  0.21063  Biso   1.000  He
  He4      1.0000 0.48314  0.00000  0.79681  Biso   1.000  He
  Ar2      1.0000 0.49756  0.00000  0.99227  Biso   1.000  Ar
  Ne3      1.0000 0.00141  0.50000  0.99646  Biso   1.000  Ne
  He5      1.0000 0.01742  0.50000  0.21063  Biso   1.000  He
  He6      1.0000 0.98315  0.50000  0.79681  Biso   1.000  He
  Ar3      1.0000 0.99937  0.50000  0.99802  Biso   1.000  Ar
  Ne4      1.0000 1.00000  0.00000  0.50000  Biso   1.000  Ne
  He7      1.0000 0.98169  1.00000  0.70865  Biso   1.000  He
  He8      1.0000 0.01791  1.00000  0.29956  Biso   1.000  He
  Ar4      1.0000 1.00000  0.00000  0.50000  Biso   1.000  Ar
