data_image0
_cell_length_a       19.719
_cell_length_b       14.849
_cell_length_c       35.106
_cell_angle_alpha    90
_cell_angle_beta     90.1
_cell_angle_gamma    90

_symmetry_space_group_name_H-M    "P 1"
_symmetry_int_tables_number       1

loop_
  _symmetry_equiv_pos_as_xyz
  'x, y, z'

loop_
  _atom_site_label
  _atom_site_occupancy
  _atom_site_fract_x
  _atom_site_fract_y
  _atom_site_fract_z
  _atom_site_thermal_displace_type
  _atom_site_B_iso_or_equiv
  _atom_site_type_symbol
  C1       1.0000 0.57543  0.50993  0.47260  Biso   1.000  C
  O1       1.0000 0.57103  0.42090  0.45793  Biso   1.000  O
  C2       1.0000 0.55535  0.59001  0.44092  Biso   1.000  C
  H1       1.0000 0.59924  0.55990  0.44619  Biso   1.000  H
  H2       1.0000 0.60652  0.54657  0.45690  Biso   1.000  H
  H3       1.0000 0.53015  0.53882  0.47240  Biso   1.000  H
  C3       1.0000 0.60111  0.50313  0.51168  Biso   1.000  C
  C4       1.0000 0.56218  0.41060  0.41768  Biso   1.000  C
  O2       1.0000 0.53216  0.56670  0.40383  Biso   1.000  O
  H4       1.0000 0.52215  0.57000  0.46021  Biso   1.000  H
  C5       1.0000 0.56373  0.68860  0.44280  Biso   1.000  C
  C6       1.0000 0.61845  0.50199  0.54162  Biso   1.000  C
  C7       1.0000 0.65622  0.46757  0.52373  Biso   1.000  C
  C8       1.0000 0.54131  0.47956  0.39361  Biso   1.000  C
  C9       1.0000 0.57598  0.32460  0.40361  Biso   1.000  C
  C10      1.0000 0.57059  0.76180  0.44958  Biso   1.000  C
  C11      1.0000 0.58263  0.75830  0.42226  Biso   1.000  C
  H5       1.0000 0.63334  0.50098  0.56740  Biso   1.000  H
  H6       1.0000 0.58584  0.53169  0.55711  Biso   1.000  H
  C12      1.0000 0.70845  0.41498  0.50382  Biso   1.000  C
  C13      1.0000 0.53211  0.46360  0.35481  Biso   1.000  C
  C14      1.0000 0.56764  0.30958  0.36467  Biso   1.000  C
  C15      1.0000 0.60177  0.25059  0.42953  Biso   1.000  C
  H7       1.0000 0.55906  0.76517  0.47579  Biso   1.000  H
  H8       1.0000 0.57644  0.82383  0.45531  Biso   1.000  H
  C16      1.0000 0.60274  0.76301  0.38241  Biso   1.000  C
  O3       1.0000 0.67434  0.35612  0.47795  Biso   1.000  O
  C17      1.0000 0.79141  0.41491  0.50385  Biso   1.000  C
  H9       1.0000 0.76023  0.45538  0.48989  Biso   1.000  H
  H10      1.0000 0.73543  0.37962  0.52239  Biso   1.000  H
  H11      1.0000 0.73934  0.45559  0.48980  Biso   1.000  H
  C18      1.0000 0.54520  0.37760  0.34077  Biso   1.000  C
  C19      1.0000 0.51088  0.53936  0.32818  Biso   1.000  C
  O4       1.0000 0.58519  0.22729  0.34954  Biso   1.000  O
  C20      1.0000 0.67830  0.24810  0.43041  Biso   1.000  C
  H12      1.0000 0.58435  0.19180  0.42050  Biso   1.000  H
  H13      1.0000 0.58446  0.26062  0.45559  Biso   1.000  H
  O5       1.0000 0.57281  0.68799  0.36267  Biso   1.000  O
  H14      1.0000 0.65274  0.76052  0.38031  Biso   1.000  H
  H15      1.0000 0.58683  0.82032  0.37111  Biso   1.000  H
  C21      1.0000 0.65795  0.81278  0.36102  Biso   1.000  C
  H16      1.0000 0.64847  0.76140  0.37811  Biso   1.000  H
  C22      1.0000 0.71494  0.30244  0.45551  Biso   1.000  C
  O6       1.0000 0.82551  0.35619  0.47784  Biso   1.000  O
  H17      1.0000 0.76464  0.37942  0.52239  Biso   1.000  H
  C23      1.0000 0.84376  0.46751  0.52367  Biso   1.000  C
  O7       1.0000 0.53682  0.36481  0.30428  Biso   1.000  O
  H18      1.0000 0.48395  0.58408  0.34259  Biso   1.000  H
  H19      1.0000 0.48166  0.51458  0.30781  Biso   1.000  H
  C24      1.0000 0.57138  0.58583  0.31035  Biso   1.000  C
  C25      1.0000 0.59065  0.21550  0.30909  Biso   1.000  C
  C26      1.0000 0.71473  0.19375  0.40517  Biso   1.000  C
  C27      1.0000 0.59912  0.66334  0.32698  Biso   1.000  C
  O8       1.0000 0.68436  0.78079  0.32561  Biso   1.000  O
  H20      1.0000 0.61503  0.84592  0.35661  Biso   1.000  H
  C28      1.0000 0.70826  0.87238  0.37840  Biso   1.000  C
  C29      1.0000 0.78508  0.30244  0.45551  Biso   1.000  C
  C30      1.0000 0.88155  0.50226  0.54165  Biso   1.000  C
  C31      1.0000 0.89915  0.50333  0.51179  Biso   1.000  C
  C32      1.0000 0.56056  0.28352  0.28747  Biso   1.000  C
  C33      1.0000 0.60216  0.55108  0.27776  Biso   1.000  C
  H21      1.0000 0.54548  0.21941  0.29750  Biso   1.000  H
  H22      1.0000 0.61977  0.26258  0.29850  Biso   1.000  H
  H23      1.0000 0.60724  0.27200  0.29579  Biso   1.000  H
  H24      1.0000 0.53147  0.23342  0.29539  Biso   1.000  H
  H25      1.0000 0.61036  0.15631  0.30360  Biso   1.000  H
  C34      1.0000 0.78517  0.19375  0.40520  Biso   1.000  C
  O9       1.0000 0.67592  0.14008  0.38236  Biso   1.000  O
  C35      1.0000 0.65536  0.70463  0.31100  Biso   1.000  C
  C36      1.0000 0.79183  0.87258  0.37831  Biso   1.000  C
  C37      1.0000 0.74994  0.91818  0.39364  Biso   1.000  C
  C38      1.0000 0.82151  0.24816  0.43044  Biso   1.000  C
  H26      1.0000 0.91405  0.53222  0.55711  Biso   1.000  H
  H27      1.0000 0.86641  0.50138  0.56731  Biso   1.000  H
  C39      1.0000 0.92454  0.51007  0.47263  Biso   1.000  C
  H28      1.0000 0.55925  0.28911  0.25970  Biso   1.000  H
  C40      1.0000 0.65896  0.59135  0.26246  Biso   1.000  C
  O10      1.0000 0.57676  0.47390  0.26169  Biso   1.000  O
  O11      1.0000 0.82395  0.14008  0.38244  Biso   1.000  O
  C41      1.0000 0.70218  0.11981  0.34587  Biso   1.000  C
  C42      1.0000 0.68655  0.66947  0.27861  Biso   1.000  C
  C43      1.0000 0.84183  0.81292  0.36102  Biso   1.000  C
  H29      1.0000 0.71666  0.95441  0.40580  Biso   1.000  H
  H30      1.0000 0.78315  0.95468  0.40580  Biso   1.000  H
  C44      1.0000 0.89829  0.25086  0.42956  Biso   1.000  C
  O12      1.0000 0.92880  0.42104  0.45801  Biso   1.000  O
  C45      1.0000 0.94452  0.59028  0.44084  Biso   1.000  C
  H31      1.0000 0.90062  0.56037  0.44599  Biso   1.000  H
  H32      1.0000 0.96972  0.53909  0.47240  Biso   1.000  H
  H33      1.0000 0.89315  0.54670  0.45690  Biso   1.000  H
  O13      1.0000 0.68929  0.55707  0.23178  Biso   1.000  O
  C46      1.0000 0.61679  0.42407  0.23495  Biso   1.000  C
  C47      1.0000 0.79787  0.11981  0.34595  Biso   1.000  C
  H34      1.0000 0.73864  0.07543  0.34829  Biso   1.000  H
  H35      1.0000 0.66597  0.09523  0.32980  Biso   1.000  H
  H36      1.0000 0.72004  0.17489  0.33419  Biso   1.000  H
  C48      1.0000 0.74999  0.71129  0.26241  Biso   1.000  C
  O14      1.0000 0.81561  0.78100  0.32561  Biso   1.000  O
  H37      1.0000 0.85127  0.76140  0.37820  Biso   1.000  H
  H38      1.0000 0.88488  0.84578  0.35669  Biso   1.000  H
  C49      1.0000 0.89718  0.76301  0.38244  Biso   1.000  C
  H39      1.0000 0.84717  0.76032  0.38031  Biso   1.000  H
  C50      1.0000 0.92392  0.32467  0.40369  Biso   1.000  C
  H40      1.0000 0.91575  0.19207  0.42050  Biso   1.000  H
  H41      1.0000 0.91576  0.26089  0.45571  Biso   1.000  H
  C51      1.0000 0.93765  0.41073  0.41776  Biso   1.000  C
  O15      1.0000 0.96778  0.56677  0.40389  Biso   1.000  O
  C52      1.0000 0.93636  0.68853  0.44292  Biso   1.000  C
  H42      1.0000 0.97765  0.57000  0.46029  Biso   1.000  H
  C53      1.0000 0.67227  0.46663  0.22005  Biso   1.000  C
  H43      1.0000 0.66165  0.41242  0.24580  Biso   1.000  H
  H44      1.0000 0.59435  0.36683  0.22919  Biso   1.000  H
  H45      1.0000 0.62158  0.45909  0.21139  Biso   1.000  H
  H46      1.0000 0.67538  0.42602  0.24201  Biso   1.000  H
  H47      1.0000 0.62599  0.46562  0.20991  Biso   1.000  H
  H48      1.0000 0.76248  0.07367  0.34820  Biso   1.000  H
  H49      1.0000 0.77856  0.17429  0.33459  Biso   1.000  H
  H50      1.0000 0.83443  0.09711  0.32969  Biso   1.000  H
  C54      1.0000 0.81338  0.66947  0.27861  Biso   1.000  C
  H51      1.0000 0.75006  0.77662  0.26799  Biso   1.000  H
  H52      1.0000 0.74985  0.70389  0.23440  Biso   1.000  H
  C55      1.0000 0.84467  0.70463  0.31103  Biso   1.000  C
  O16      1.0000 0.92704  0.68799  0.36273  Biso   1.000  O
  H53      1.0000 0.91286  0.82032  0.37099  Biso   1.000  H
  C56      1.0000 0.91743  0.75850  0.42224  Biso   1.000  C
  C57      1.0000 0.93221  0.30945  0.36472  Biso   1.000  C
  C58      1.0000 0.95857  0.47956  0.39364  Biso   1.000  C
  C59      1.0000 0.92918  0.76200  0.44958  Biso   1.000  C
  H54      1.0000 0.70395  0.44683  0.20031  Biso   1.000  H
  C60      1.0000 0.84092  0.59135  0.26246  Biso   1.000  C
  C61      1.0000 0.90086  0.66348  0.32698  Biso   1.000  C
  C62      1.0000 0.95471  0.37767  0.34083  Biso   1.000  C
  O17      1.0000 0.91477  0.22722  0.34951  Biso   1.000  O
  C63      1.0000 0.96784  0.46367  0.35487  Biso   1.000  C
  H55      1.0000 0.92316  0.82410  0.45519  Biso   1.000  H
  H56      1.0000 0.94042  0.76537  0.47590  Biso   1.000  H
  C64      1.0000 0.89776  0.55115  0.27779  Biso   1.000  C
  O18      1.0000 0.81065  0.55694  0.23181  Biso   1.000  O
  C65      1.0000 0.92855  0.58576  0.31037  Biso   1.000  C
  O19      1.0000 0.96332  0.36487  0.30439  Biso   1.000  O
  C66      1.0000 0.90917  0.21577  0.30926  Biso   1.000  C
  C67      1.0000 0.98905  0.53950  0.32815  Biso   1.000  C
  O20      1.0000 0.92327  0.47417  0.26161  Biso   1.000  O
  C68      1.0000 0.82755  0.46663  0.21999  Biso   1.000  C
  C69      1.0000 0.93928  0.28332  0.28764  Biso   1.000  C
  H57      1.0000 0.89214  0.27308  0.29531  Biso   1.000  H
  H58      1.0000 0.96735  0.23288  0.29630  Biso   1.000  H
  H59      1.0000 0.89024  0.15617  0.30371  Biso   1.000  H
  H60      1.0000 0.87927  0.26231  0.29881  Biso   1.000  H
  H61      1.0000 0.95417  0.22102  0.29770  Biso   1.000  H
  H62      1.0000 0.01805  0.51451  0.30770  Biso   1.000  H
  H63      1.0000 0.01608  0.58421  0.34251  Biso   1.000  H
  C70      1.0000 0.88328  0.42427  0.23478  Biso   1.000  C
  H64      1.0000 0.82498  0.42602  0.24190  Biso   1.000  H
  H65      1.0000 0.79559  0.44670  0.20031  Biso   1.000  H
  H66      1.0000 0.87377  0.46582  0.20971  Biso   1.000  H
  H67      1.0000 0.83859  0.41188  0.24580  Biso   1.000  H
  H68      1.0000 0.87778  0.45963  0.21139  Biso   1.000  H
  H69      1.0000 0.94178  0.28803  0.25981  Biso   1.000  H
  H70      1.0000 0.90598  0.36743  0.22879  Biso   1.000  H
  C71      1.0000 0.42443  0.49007  0.52740  Biso   1.000  C
  C72      1.0000 0.39875  0.49687  0.48832  Biso   1.000  C
  O21      1.0000 0.42884  0.57910  0.54207  Biso   1.000  O
  H71      1.0000 0.39334  0.45343  0.54310  Biso   1.000  H
  H72      1.0000 0.46972  0.46118  0.52760  Biso   1.000  H
  C73      1.0000 0.44451  0.40999  0.55908  Biso   1.000  C
  H73      1.0000 0.40063  0.44010  0.55381  Biso   1.000  H
  C74      1.0000 0.38146  0.49801  0.45838  Biso   1.000  C
  C75      1.0000 0.34364  0.53243  0.47627  Biso   1.000  C
  C76      1.0000 0.43768  0.58940  0.58232  Biso   1.000  C
  O22      1.0000 0.46775  0.43330  0.59617  Biso   1.000  O
  H74      1.0000 0.47772  0.43000  0.53979  Biso   1.000  H
  C77      1.0000 0.43613  0.31140  0.55720  Biso   1.000  C
  H75      1.0000 0.36652  0.49902  0.43260  Biso   1.000  H
  H76      1.0000 0.41402  0.46831  0.44289  Biso   1.000  H
  C78      1.0000 0.29141  0.58502  0.49618  Biso   1.000  C
  C79      1.0000 0.42388  0.67540  0.59639  Biso   1.000  C
  C80      1.0000 0.45855  0.52044  0.60639  Biso   1.000  C
  C81      1.0000 0.42927  0.23820  0.55042  Biso   1.000  C
  C82      1.0000 0.41723  0.24170  0.57774  Biso   1.000  C
  C83      1.0000 0.20845  0.58509  0.49616  Biso   1.000  C
  H77      1.0000 0.23963  0.54462  0.51011  Biso   1.000  H
  O23      1.0000 0.32552  0.64388  0.52205  Biso   1.000  O
  H78      1.0000 0.26443  0.62038  0.47761  Biso   1.000  H
  H79      1.0000 0.26052  0.54441  0.51020  Biso   1.000  H
  C84      1.0000 0.39814  0.74941  0.57047  Biso   1.000  C
  C85      1.0000 0.43222  0.69042  0.63533  Biso   1.000  C
  C86      1.0000 0.46775  0.53640  0.64519  Biso   1.000  C
  H80      1.0000 0.44085  0.23483  0.52421  Biso   1.000  H
  H81      1.0000 0.42342  0.17617  0.54469  Biso   1.000  H
  C87      1.0000 0.39712  0.23699  0.61759  Biso   1.000  C
  O24      1.0000 0.17440  0.64381  0.52216  Biso   1.000  O
  H82      1.0000 0.23522  0.62058  0.47761  Biso   1.000  H
  C88      1.0000 0.15615  0.53249  0.47633  Biso   1.000  C
  C89      1.0000 0.28492  0.69756  0.54447  Biso   1.000  C
  C90      1.0000 0.32156  0.75190  0.56959  Biso   1.000  C
  H83      1.0000 0.41551  0.80820  0.57950  Biso   1.000  H
  H84      1.0000 0.41545  0.73938  0.54441  Biso   1.000  H
  C91      1.0000 0.45466  0.62240  0.65923  Biso   1.000  C
  O25      1.0000 0.41467  0.77271  0.65046  Biso   1.000  O
  C92      1.0000 0.48898  0.46064  0.67182  Biso   1.000  C
  O26      1.0000 0.42710  0.31201  0.63733  Biso   1.000  O
  H85      1.0000 0.34713  0.23948  0.61970  Biso   1.000  H
  H86      1.0000 0.41303  0.17968  0.62890  Biso   1.000  H
  C93      1.0000 0.34191  0.18722  0.63898  Biso   1.000  C
  H87      1.0000 0.35144  0.23860  0.62189  Biso   1.000  H
  C94      1.0000 0.21479  0.69756  0.54447  Biso   1.000  C
  C95      1.0000 0.11837  0.49774  0.45836  Biso   1.000  C
  C96      1.0000 0.10076  0.49667  0.48821  Biso   1.000  C
  C97      1.0000 0.28518  0.80625  0.59483  Biso   1.000  C
  O27      1.0000 0.46304  0.63519  0.69572  Biso   1.000  O
  C98      1.0000 0.40922  0.78450  0.69091  Biso   1.000  C
  H88      1.0000 0.51591  0.41592  0.65741  Biso   1.000  H
  H89      1.0000 0.51820  0.48542  0.69219  Biso   1.000  H
  C99      1.0000 0.42848  0.41417  0.68966  Biso   1.000  C
  C100     1.0000 0.40074  0.33666  0.67302  Biso   1.000  C
  O28      1.0000 0.31550  0.21921  0.67439  Biso   1.000  O
  H90      1.0000 0.38483  0.15408  0.64340  Biso   1.000  H
  C101     1.0000 0.29160  0.12762  0.62160  Biso   1.000  C
  C102     1.0000 0.17835  0.75184  0.56956  Biso   1.000  C
  H91      1.0000 0.08586  0.46778  0.44289  Biso   1.000  H
  H92      1.0000 0.13345  0.49862  0.43269  Biso   1.000  H
  C103     1.0000 0.07532  0.48993  0.52735  Biso   1.000  C
  C104     1.0000 0.21469  0.80625  0.59480  Biso   1.000  C
  O29      1.0000 0.32399  0.85992  0.61764  Biso   1.000  O
  C105     1.0000 0.43931  0.71648  0.71253  Biso   1.000  C
  H93      1.0000 0.38951  0.84369  0.69641  Biso   1.000  H
  H94      1.0000 0.45444  0.78059  0.70250  Biso   1.000  H
  H95      1.0000 0.38009  0.73742  0.70151  Biso   1.000  H
  H96      1.0000 0.39262  0.72800  0.70421  Biso   1.000  H
  H97      1.0000 0.46839  0.76658  0.70461  Biso   1.000  H
  C106     1.0000 0.39775  0.44892  0.72224  Biso   1.000  C
  C107     1.0000 0.34450  0.29537  0.68900  Biso   1.000  C
  C108     1.0000 0.20803  0.12742  0.62169  Biso   1.000  C
  C109     1.0000 0.24992  0.08182  0.60634  Biso   1.000  C
  C110     1.0000 0.10157  0.74914  0.57044  Biso   1.000  C
  C111     1.0000 0.05534  0.40972  0.55916  Biso   1.000  C
  H98      1.0000 0.09924  0.43963  0.55401  Biso   1.000  H
  O30      1.0000 0.07106  0.57896  0.54199  Biso   1.000  O
  H99      1.0000 0.03014  0.46091  0.52760  Biso   1.000  H
  H100     1.0000 0.10671  0.45330  0.54310  Biso   1.000  H
  O31      1.0000 0.17591  0.85992  0.61756  Biso   1.000  O
  C112     1.0000 0.29774  0.88019  0.65413  Biso   1.000  C
  H101     1.0000 0.44061  0.71089  0.74030  Biso   1.000  H
  C113     1.0000 0.34095  0.40865  0.73754  Biso   1.000  C
  O32      1.0000 0.42311  0.52610  0.73831  Biso   1.000  O
  C114     1.0000 0.31331  0.33053  0.72139  Biso   1.000  C
  C115     1.0000 0.15803  0.18708  0.63898  Biso   1.000  C
  H102     1.0000 0.28325  0.04559  0.59420  Biso   1.000  H
  H103     1.0000 0.21672  0.04532  0.59420  Biso   1.000  H
  C116     1.0000 0.07594  0.67533  0.59631  Biso   1.000  C
  H104     1.0000 0.08411  0.80793  0.57950  Biso   1.000  H
  H105     1.0000 0.08415  0.73911  0.54430  Biso   1.000  H
  O33      1.0000 0.03208  0.43323  0.59611  Biso   1.000  O
  H106     1.0000 0.02222  0.43000  0.53971  Biso   1.000  H
  C117     1.0000 0.06355  0.31147  0.55709  Biso   1.000  C
  C118     1.0000 0.06221  0.58927  0.58224  Biso   1.000  C
  C119     1.0000 0.20204  0.88019  0.65405  Biso   1.000  C
  H107     1.0000 0.26122  0.92457  0.65171  Biso   1.000  H
  H108     1.0000 0.33389  0.90477  0.67020  Biso   1.000  H
  H109     1.0000 0.27982  0.82511  0.66581  Biso   1.000  H
  O34      1.0000 0.31057  0.44293  0.76822  Biso   1.000  O
  C120     1.0000 0.38313  0.57593  0.76506  Biso   1.000  C
  C121     1.0000 0.24987  0.28871  0.73760  Biso   1.000  C
  C122     1.0000 0.10274  0.23699  0.61756  Biso   1.000  C
  O35      1.0000 0.18425  0.21900  0.67439  Biso   1.000  O
  H110     1.0000 0.14864  0.23860  0.62180  Biso   1.000  H
  H111     1.0000 0.11504  0.15422  0.64331  Biso   1.000  H
  H112     1.0000 0.15274  0.23968  0.61970  Biso   1.000  H
  C123     1.0000 0.06765  0.69055  0.63528  Biso   1.000  C
  C124     1.0000 0.04129  0.52044  0.60634  Biso   1.000  C
  C125     1.0000 0.07068  0.23800  0.55042  Biso   1.000  C
  C126     1.0000 0.08243  0.24150  0.57777  Biso   1.000  C
  H113     1.0000 0.23743  0.92633  0.65180  Biso   1.000  H
  H114     1.0000 0.22130  0.82571  0.66539  Biso   1.000  H
  H115     1.0000 0.16543  0.90289  0.67031  Biso   1.000  H
  C127     1.0000 0.32759  0.53337  0.77995  Biso   1.000  C
  H116     1.0000 0.33821  0.58758  0.75420  Biso   1.000  H
  H117     1.0000 0.40551  0.63317  0.77081  Biso   1.000  H
  H118     1.0000 0.37828  0.54091  0.78861  Biso   1.000  H
  H119     1.0000 0.32448  0.57398  0.75799  Biso   1.000  H
  H120     1.0000 0.37392  0.53438  0.79009  Biso   1.000  H
  C128     1.0000 0.18648  0.33053  0.72139  Biso   1.000  C
  H121     1.0000 0.24980  0.22338  0.73201  Biso   1.000  H
  H122     1.0000 0.25001  0.29611  0.76560  Biso   1.000  H
  O36      1.0000 0.07283  0.31201  0.63727  Biso   1.000  O
  H123     1.0000 0.08700  0.17968  0.62901  Biso   1.000  H
  C129     1.0000 0.15519  0.29537  0.68897  Biso   1.000  C
  C130     1.0000 0.04515  0.62233  0.65918  Biso   1.000  C
  O37      1.0000 0.08509  0.77278  0.65049  Biso   1.000  O
  C131     1.0000 0.03203  0.53633  0.64513  Biso   1.000  C
  H124     1.0000 0.07675  0.17590  0.54481  Biso   1.000  H
  H125     1.0000 0.05944  0.23463  0.52410  Biso   1.000  H
  H126     1.0000 0.29591  0.55317  0.79969  Biso   1.000  H
  C132     1.0000 0.15894  0.40865  0.73754  Biso   1.000  C
  C133     1.0000 0.09905  0.33652  0.67302  Biso   1.000  C
  O38      1.0000 0.03660  0.63513  0.69561  Biso   1.000  O
  C134     1.0000 0.09069  0.78423  0.69074  Biso   1.000  C
  C135     1.0000 0.01086  0.46050  0.67185  Biso   1.000  C
  C136     1.0000 0.10210  0.44885  0.72221  Biso   1.000  C
  O39      1.0000 0.18921  0.44306  0.76819  Biso   1.000  O
  C137     1.0000 0.07131  0.41424  0.68963  Biso   1.000  C
  C138     1.0000 0.06063  0.71668  0.71236  Biso   1.000  C
  H127     1.0000 0.10772  0.72692  0.70470  Biso   1.000  H
  H128     1.0000 0.03251  0.76712  0.70370  Biso   1.000  H
  H129     1.0000 0.10962  0.84383  0.69629  Biso   1.000  H
  H130     1.0000 0.12059  0.73769  0.70119  Biso   1.000  H
  H131     1.0000 0.04569  0.77898  0.70230  Biso   1.000  H
  H132     1.0000 0.98182  0.48549  0.69230  Biso   1.000  H
  H133     1.0000 0.98384  0.41579  0.65750  Biso   1.000  H
  O40      1.0000 0.07659  0.52583  0.73839  Biso   1.000  O
  C139     1.0000 0.17231  0.53337  0.78001  Biso   1.000  C
  H134     1.0000 0.05808  0.71197  0.74019  Biso   1.000  H
  C140     1.0000 0.11658  0.57573  0.76523  Biso   1.000  C
  H135     1.0000 0.17493  0.57398  0.75811  Biso   1.000  H
  H136     1.0000 0.20432  0.55330  0.79969  Biso   1.000  H
  H137     1.0000 0.12609  0.53418  0.79029  Biso   1.000  H
  H138     1.0000 0.16133  0.58812  0.75420  Biso   1.000  H
  H139     1.0000 0.12208  0.54037  0.78861  Biso   1.000  H
  H140     1.0000 0.09388  0.63257  0.77121  Biso   1.000  H
  C141     1.0000 0.60160  0.24911  0.57044  Biso   1.000  C
  C142     1.0000 0.67838  0.25180  0.56956  Biso   1.000  C
  C143     1.0000 0.57592  0.17530  0.59631  Biso   1.000  C
  H141     1.0000 0.58413  0.30790  0.57950  Biso   1.000  H
  H142     1.0000 0.58412  0.23907  0.54430  Biso   1.000  H
  C144     1.0000 0.71481  0.19752  0.54447  Biso   1.000  C
  C145     1.0000 0.71471  0.30628  0.59480  Biso   1.000  C
  C146     1.0000 0.56218  0.08930  0.58224  Biso   1.000  C
  C147     1.0000 0.56767  0.19052  0.63528  Biso   1.000  C
  O41      1.0000 0.67437  0.14378  0.52216  Biso   1.000  O
  C148     1.0000 0.78495  0.19752  0.54447  Biso   1.000  C
  C149     1.0000 0.78515  0.30622  0.59483  Biso   1.000  C
  O42      1.0000 0.67594  0.35996  0.61756  Biso   1.000  O
  O43      1.0000 0.57108  0.07900  0.54199  Biso   1.000  O
  C150     1.0000 0.54131  0.02047  0.60634  Biso   1.000  C
  C151     1.0000 0.54518  0.12230  0.65918  Biso   1.000  C
  O44      1.0000 0.58511  0.27281  0.65049  Biso   1.000  O
  C152     1.0000 0.70842  0.08512  0.49616  Biso   1.000  C
  O45      1.0000 0.82555  0.14385  0.52205  Biso   1.000  O
  C153     1.0000 0.82154  0.25187  0.56959  Biso   1.000  C
  O46      1.0000 0.82397  0.35989  0.61764  Biso   1.000  O
  C154     1.0000 0.70202  0.38023  0.65405  Biso   1.000  C
  C155     1.0000 0.57535  0.98990  0.52735  Biso   1.000  C
  O47      1.0000 0.53205  0.93319  0.59611  Biso   1.000  O
  C156     1.0000 0.53205  0.03630  0.64513  Biso   1.000  C
  O48      1.0000 0.53657  0.13516  0.69561  Biso   1.000  O
  C157     1.0000 0.59072  0.28419  0.69074  Biso   1.000  C
  C158     1.0000 0.65613  0.03253  0.47633  Biso   1.000  C
  H143     1.0000 0.73965  0.04458  0.51011  Biso   1.000  H
  H144     1.0000 0.73524  0.12061  0.47761  Biso   1.000  H
  C159     1.0000 0.79144  0.08499  0.49618  Biso   1.000  C
  H145     1.0000 0.76055  0.04438  0.51020  Biso   1.000  H
  C160     1.0000 0.89812  0.24944  0.57047  Biso   1.000  C
  C161     1.0000 0.79771  0.38023  0.65413  Biso   1.000  C
  H146     1.0000 0.73741  0.42629  0.65180  Biso   1.000  H
  H147     1.0000 0.72132  0.32568  0.66539  Biso   1.000  H
  H148     1.0000 0.66540  0.40292  0.67031  Biso   1.000  H
  C162     1.0000 0.60074  0.99670  0.48821  Biso   1.000  C
  C163     1.0000 0.55532  0.90969  0.55916  Biso   1.000  C
  H149     1.0000 0.59922  0.93959  0.55401  Biso   1.000  H
  H150     1.0000 0.53011  0.96087  0.52760  Biso   1.000  H
  H151     1.0000 0.60674  0.95333  0.54310  Biso   1.000  H
  C164     1.0000 0.51084  0.96054  0.67185  Biso   1.000  C
  C165     1.0000 0.56061  0.21671  0.71236  Biso   1.000  C
  H152     1.0000 0.60770  0.22688  0.70470  Biso   1.000  H
  H153     1.0000 0.53249  0.26709  0.70370  Biso   1.000  H
  H154     1.0000 0.60960  0.34379  0.69629  Biso   1.000  H
  H155     1.0000 0.62062  0.23773  0.70119  Biso   1.000  H
  H156     1.0000 0.54572  0.27901  0.70230  Biso   1.000  H
  C166     1.0000 0.61834  0.99771  0.45836  Biso   1.000  C
  H157     1.0000 0.76445  0.12041  0.47761  Biso   1.000  H
  C167     1.0000 0.84366  0.03239  0.47627  Biso   1.000  C
  H158     1.0000 0.91554  0.30817  0.57950  Biso   1.000  H
  H159     1.0000 0.91543  0.23941  0.54441  Biso   1.000  H
  C168     1.0000 0.92386  0.17543  0.59639  Biso   1.000  C
  H160     1.0000 0.76124  0.42461  0.65171  Biso   1.000  H
  H161     1.0000 0.83392  0.40481  0.67020  Biso   1.000  H
  H162     1.0000 0.77980  0.32507  0.66581  Biso   1.000  H
  H163     1.0000 0.52224  0.93003  0.53971  Biso   1.000  H
  C169     1.0000 0.56352  0.81150  0.55709  Biso   1.000  C
  C170     1.0000 0.57129  0.91420  0.68963  Biso   1.000  C
  H164     1.0000 0.48179  0.98552  0.69230  Biso   1.000  H
  H165     1.0000 0.48381  0.91582  0.65750  Biso   1.000  H
  H166     1.0000 0.55811  0.21200  0.74019  Biso   1.000  H
  H167     1.0000 0.58584  0.96781  0.44289  Biso   1.000  H
  H168     1.0000 0.63343  0.99859  0.43269  Biso   1.000  H
  C171     1.0000 0.88144  0.99805  0.45838  Biso   1.000  C
  C172     1.0000 0.89872  0.99690  0.48832  Biso   1.000  C
  C173     1.0000 0.93771  0.08937  0.58232  Biso   1.000  C
  C174     1.0000 0.93224  0.19045  0.63533  Biso   1.000  C
  C175     1.0000 0.57070  0.73803  0.55042  Biso   1.000  C
  C176     1.0000 0.58245  0.74153  0.57777  Biso   1.000  C
  C177     1.0000 0.59903  0.83655  0.67302  Biso   1.000  C
  C178     1.0000 0.60212  0.94882  0.72221  Biso   1.000  C
  H169     1.0000 0.86655  0.99899  0.43260  Biso   1.000  H
  H170     1.0000 0.91405  0.96828  0.44289  Biso   1.000  H
  C179     1.0000 0.92445  0.99010  0.52740  Biso   1.000  C
  O49      1.0000 0.92886  0.07906  0.54207  Biso   1.000  O
  C180     1.0000 0.95858  0.02047  0.60639  Biso   1.000  C
  C181     1.0000 0.95468  0.12243  0.65923  Biso   1.000  C
  O50      1.0000 0.91469  0.27268  0.65046  Biso   1.000  O
  H171     1.0000 0.57672  0.67587  0.54481  Biso   1.000  H
  H172     1.0000 0.55942  0.73459  0.52410  Biso   1.000  H
  C182     1.0000 0.60271  0.73702  0.61756  Biso   1.000  C
  O51      1.0000 0.57280  0.81204  0.63727  Biso   1.000  O
  C183     1.0000 0.65522  0.79534  0.68897  Biso   1.000  C
  O52      1.0000 0.57661  0.02586  0.73839  Biso   1.000  O
  C184     1.0000 0.65892  0.90861  0.73754  Biso   1.000  C
  H173     1.0000 0.89331  0.95340  0.54310  Biso   1.000  H
  H174     1.0000 0.96974  0.96121  0.52760  Biso   1.000  H
  C185     1.0000 0.94453  0.91003  0.55908  Biso   1.000  C
  H175     1.0000 0.90065  0.94013  0.55381  Biso   1.000  H
  O53      1.0000 0.96772  0.93333  0.59617  Biso   1.000  O
  C186     1.0000 0.96777  0.03637  0.64519  Biso   1.000  C
  O54      1.0000 0.96306  0.13523  0.69572  Biso   1.000  O
  C187     1.0000 0.90919  0.28453  0.69091  Biso   1.000  C
  C188     1.0000 0.65800  0.68712  0.63898  Biso   1.000  C
  H176     1.0000 0.64862  0.73857  0.62180  Biso   1.000  H
  H177     1.0000 0.58702  0.67971  0.62901  Biso   1.000  H
  H178     1.0000 0.65272  0.73971  0.61970  Biso   1.000  H
  O55      1.0000 0.68428  0.71897  0.67439  Biso   1.000  O
  C189     1.0000 0.68651  0.83056  0.72139  Biso   1.000  C
  C190     1.0000 0.61661  0.07570  0.76523  Biso   1.000  C
  O56      1.0000 0.68919  0.94303  0.76819  Biso   1.000  O
  H179     1.0000 0.97774  0.93003  0.53979  Biso   1.000  H
  C191     1.0000 0.93611  0.81137  0.55720  Biso   1.000  C
  C192     1.0000 0.98900  0.96067  0.67182  Biso   1.000  C
  C193     1.0000 0.93933  0.21651  0.71253  Biso   1.000  C
  H180     1.0000 0.88953  0.34373  0.69641  Biso   1.000  H
  H181     1.0000 0.95441  0.28062  0.70250  Biso   1.000  H
  H182     1.0000 0.88011  0.23739  0.70151  Biso   1.000  H
  H183     1.0000 0.89260  0.22803  0.70421  Biso   1.000  H
  H184     1.0000 0.96841  0.26662  0.70461  Biso   1.000  H
  H185     1.0000 0.61501  0.65419  0.64331  Biso   1.000  H
  C194     1.0000 0.70800  0.62738  0.62169  Biso   1.000  C
  C195     1.0000 0.74990  0.78867  0.73760  Biso   1.000  C
  C196     1.0000 0.67229  0.03340  0.78001  Biso   1.000  C
  H186     1.0000 0.67490  0.07401  0.75811  Biso   1.000  H
  H187     1.0000 0.62612  0.03421  0.79029  Biso   1.000  H
  H188     1.0000 0.66130  0.08809  0.75420  Biso   1.000  H
  H189     1.0000 0.62211  0.04041  0.78861  Biso   1.000  H
  H190     1.0000 0.59391  0.13260  0.77121  Biso   1.000  H
  C197     1.0000 0.92929  0.73823  0.55042  Biso   1.000  C
  C198     1.0000 0.91721  0.74173  0.57774  Biso   1.000  C
  C199     1.0000 0.92846  0.91420  0.68966  Biso   1.000  C
  H191     1.0000 0.01594  0.91589  0.65741  Biso   1.000  H
  H192     1.0000 0.01823  0.98539  0.69219  Biso   1.000  H
  H193     1.0000 0.94058  0.21092  0.74030  Biso   1.000  H
  C200     1.0000 0.74994  0.58179  0.60634  Biso   1.000  C
  C201     1.0000 0.79163  0.62758  0.62160  Biso   1.000  C
  C202     1.0000 0.81329  0.83056  0.72139  Biso   1.000  C
  H194     1.0000 0.74983  0.72342  0.73201  Biso   1.000  H
  H195     1.0000 0.74998  0.79608  0.76560  Biso   1.000  H
  H196     1.0000 0.70430  0.05327  0.79969  Biso   1.000  H
  H197     1.0000 0.94082  0.73480  0.52421  Biso   1.000  H
  H198     1.0000 0.92344  0.67621  0.54469  Biso   1.000  H
  C203     1.0000 0.89715  0.73702  0.61759  Biso   1.000  C
  C204     1.0000 0.90077  0.83662  0.67302  Biso   1.000  C
  C205     1.0000 0.89773  0.94895  0.72224  Biso   1.000  C
  H199     1.0000 0.78322  0.54563  0.59420  Biso   1.000  H
  H200     1.0000 0.71674  0.54529  0.59420  Biso   1.000  H
  C206     1.0000 0.84194  0.68718  0.63898  Biso   1.000  C
  C207     1.0000 0.84453  0.79534  0.68900  Biso   1.000  C
  C208     1.0000 0.84092  0.90868  0.73754  Biso   1.000  C
  O57      1.0000 0.92708  0.81197  0.63733  Biso   1.000  O
  H201     1.0000 0.84710  0.73951  0.61970  Biso   1.000  H
  H202     1.0000 0.91300  0.67971  0.62890  Biso   1.000  H
  H203     1.0000 0.85142  0.73857  0.62189  Biso   1.000  H
  O58      1.0000 0.92313  0.02613  0.73831  Biso   1.000  O
  O59      1.0000 0.81552  0.71917  0.67439  Biso   1.000  O
  H204     1.0000 0.88480  0.65412  0.64340  Biso   1.000  H
  O60      1.0000 0.81054  0.94289  0.76822  Biso   1.000  O
  C209     1.0000 0.88310  0.07590  0.76506  Biso   1.000  C
  C210     1.0000 0.82762  0.03340  0.77995  Biso   1.000  C
  H205     1.0000 0.83819  0.08762  0.75420  Biso   1.000  H
  H206     1.0000 0.90548  0.13321  0.77081  Biso   1.000  H
  H207     1.0000 0.87831  0.04088  0.78861  Biso   1.000  H
  H208     1.0000 0.82451  0.07401  0.75799  Biso   1.000  H
  H209     1.0000 0.87390  0.03441  0.79009  Biso   1.000  H
  H210     1.0000 0.79588  0.05320  0.79969  Biso   1.000  H
  C211     1.0000 0.39826  0.75089  0.42956  Biso   1.000  C
  C212     1.0000 0.32149  0.74820  0.43044  Biso   1.000  C
  C213     1.0000 0.42394  0.82470  0.40369  Biso   1.000  C
  H211     1.0000 0.41573  0.69210  0.42050  Biso   1.000  H
  H212     1.0000 0.41574  0.76093  0.45571  Biso   1.000  H
  C214     1.0000 0.28515  0.69372  0.40520  Biso   1.000  C
  C215     1.0000 0.28505  0.80248  0.45551  Biso   1.000  C
  C216     1.0000 0.43768  0.91070  0.41776  Biso   1.000  C
  C217     1.0000 0.43224  0.80948  0.36472  Biso   1.000  C
  O61      1.0000 0.32397  0.64004  0.38244  Biso   1.000  O
  C218     1.0000 0.21471  0.69378  0.40517  Biso   1.000  C
  O62      1.0000 0.32549  0.85622  0.47784  Biso   1.000  O
  C219     1.0000 0.21492  0.80248  0.45551  Biso   1.000  C
  C220     1.0000 0.45860  0.97953  0.39364  Biso   1.000  C
  O63      1.0000 0.42883  0.92100  0.45801  Biso   1.000  O
  C221     1.0000 0.45473  0.87770  0.34083  Biso   1.000  C
  O64      1.0000 0.41480  0.72719  0.34951  Biso   1.000  O
  C222     1.0000 0.29784  0.61977  0.34595  Biso   1.000  C
  C223     1.0000 0.17832  0.74813  0.43041  Biso   1.000  C
  O65      1.0000 0.17589  0.64011  0.38236  Biso   1.000  O
  C224     1.0000 0.29144  0.91488  0.50385  Biso   1.000  C
  O66      1.0000 0.17436  0.85615  0.47795  Biso   1.000  O
  C225     1.0000 0.46781  0.96370  0.35487  Biso   1.000  C
  O67      1.0000 0.46781  0.06681  0.40389  Biso   1.000  O
  C226     1.0000 0.42456  0.01010  0.47263  Biso   1.000  C
  O68      1.0000 0.46329  0.86484  0.30439  Biso   1.000  O
  C227     1.0000 0.40915  0.71581  0.30926  Biso   1.000  C
  H213     1.0000 0.26245  0.57371  0.34820  Biso   1.000  H
  H214     1.0000 0.27854  0.67432  0.33459  Biso   1.000  H
  H215     1.0000 0.33446  0.59708  0.32969  Biso   1.000  H
  C228     1.0000 0.10175  0.75056  0.42953  Biso   1.000  C
  C229     1.0000 0.20215  0.61977  0.34587  Biso   1.000  C
  H216     1.0000 0.26026  0.95542  0.48989  Biso   1.000  H
  H217     1.0000 0.26462  0.87939  0.52239  Biso   1.000  H
  C230     1.0000 0.34373  0.96747  0.52367  Biso   1.000  C
  C231     1.0000 0.20842  0.91501  0.50382  Biso   1.000  C
  H218     1.0000 0.23936  0.95562  0.48980  Biso   1.000  H
  C232     1.0000 0.48903  0.03946  0.32815  Biso   1.000  C
  C233     1.0000 0.44455  0.09031  0.44084  Biso   1.000  C
  C234     1.0000 0.39913  0.00330  0.51179  Biso   1.000  C
  H219     1.0000 0.40065  0.06041  0.44599  Biso   1.000  H
  H220     1.0000 0.46975  0.03913  0.47240  Biso   1.000  H
  H221     1.0000 0.39312  0.04667  0.45690  Biso   1.000  H
  C235     1.0000 0.43925  0.78329  0.28764  Biso   1.000  C
  H222     1.0000 0.39216  0.77312  0.29531  Biso   1.000  H
  H223     1.0000 0.46737  0.73291  0.29630  Biso   1.000  H
  H224     1.0000 0.39026  0.65621  0.30371  Biso   1.000  H
  H225     1.0000 0.37924  0.76227  0.29881  Biso   1.000  H
  H226     1.0000 0.45414  0.72099  0.29770  Biso   1.000  H
  H227     1.0000 0.08432  0.69183  0.42050  Biso   1.000  H
  H228     1.0000 0.08443  0.76059  0.45559  Biso   1.000  H
  C236     1.0000 0.07600  0.82457  0.40361  Biso   1.000  C
  H229     1.0000 0.23867  0.57539  0.34829  Biso   1.000  H
  H230     1.0000 0.16594  0.59519  0.32980  Biso   1.000  H
  H231     1.0000 0.22007  0.67493  0.33419  Biso   1.000  H
  C237     1.0000 0.38152  0.00229  0.54165  Biso   1.000  C
  H232     1.0000 0.23546  0.87959  0.52239  Biso   1.000  H
  C238     1.0000 0.15625  0.96761  0.52373  Biso   1.000  C
  C239     1.0000 0.42857  0.08580  0.31037  Biso   1.000  C
  H233     1.0000 0.51807  0.01448  0.30770  Biso   1.000  H
  H234     1.0000 0.51605  0.08418  0.34251  Biso   1.000  H
  H235     1.0000 0.47762  0.06997  0.46029  Biso   1.000  H
  C240     1.0000 0.43634  0.18850  0.44292  Biso   1.000  C
  H236     1.0000 0.44175  0.78800  0.25981  Biso   1.000  H
  C241     1.0000 0.06215  0.91063  0.41768  Biso   1.000  C
  C242     1.0000 0.06762  0.80955  0.36467  Biso   1.000  C
  H237     1.0000 0.41402  0.03219  0.55711  Biso   1.000  H
  H238     1.0000 0.36644  0.00141  0.56731  Biso   1.000  H
  C243     1.0000 0.11842  0.00195  0.54162  Biso   1.000  C
  C244     1.0000 0.10114  0.00310  0.51168  Biso   1.000  C
  C245     1.0000 0.40083  0.16345  0.32698  Biso   1.000  C
  C246     1.0000 0.39779  0.05118  0.27779  Biso   1.000  C
  C247     1.0000 0.42916  0.26197  0.44958  Biso   1.000  C
  C248     1.0000 0.41746  0.25847  0.42224  Biso   1.000  C
  O69      1.0000 0.07105  0.92094  0.45793  Biso   1.000  O
  C249     1.0000 0.04134  0.97953  0.39361  Biso   1.000  C
  C250     1.0000 0.04518  0.87757  0.34077  Biso   1.000  C
  O70      1.0000 0.08522  0.72732  0.34954  Biso   1.000  O
  H239     1.0000 0.13331  0.00101  0.56740  Biso   1.000  H
  H240     1.0000 0.08581  0.03172  0.55711  Biso   1.000  H
  C251     1.0000 0.07546  0.00990  0.47260  Biso   1.000  C
  C252     1.0000 0.34465  0.20466  0.31103  Biso   1.000  C
  O71      1.0000 0.42706  0.18796  0.36273  Biso   1.000  O
  O72      1.0000 0.42330  0.97414  0.26161  Biso   1.000  O
  C253     1.0000 0.34094  0.09139  0.26246  Biso   1.000  C
  H241     1.0000 0.42314  0.32413  0.45519  Biso   1.000  H
  H242     1.0000 0.44045  0.26541  0.47590  Biso   1.000  H
  C254     1.0000 0.39715  0.26298  0.38244  Biso   1.000  C
  C255     1.0000 0.03209  0.96363  0.35481  Biso   1.000  C
  O73      1.0000 0.03214  0.06667  0.40383  Biso   1.000  O
  O74      1.0000 0.03685  0.86477  0.30428  Biso   1.000  O
  C256     1.0000 0.09067  0.71547  0.30909  Biso   1.000  C
  H243     1.0000 0.10655  0.04660  0.45690  Biso   1.000  H
  H244     1.0000 0.03012  0.03879  0.47240  Biso   1.000  H
  C257     1.0000 0.05533  0.08997  0.44092  Biso   1.000  C
  H245     1.0000 0.09926  0.05987  0.44619  Biso   1.000  H
  O75      1.0000 0.31558  0.28103  0.32561  Biso   1.000  O
  C258     1.0000 0.31336  0.16944  0.27861  Biso   1.000  C
  C259     1.0000 0.38325  0.92430  0.23478  Biso   1.000  C
  O76      1.0000 0.31068  0.05697  0.23181  Biso   1.000  O
  C260     1.0000 0.34186  0.31288  0.36102  Biso   1.000  C
  H246     1.0000 0.35124  0.26143  0.37820  Biso   1.000  H
  H247     1.0000 0.41284  0.32029  0.37099  Biso   1.000  H
  H248     1.0000 0.34714  0.26029  0.38031  Biso   1.000  H
  C261     1.0000 0.01091  0.03933  0.32818  Biso   1.000  C
  C262     1.0000 0.06058  0.78349  0.28747  Biso   1.000  C
  H249     1.0000 0.11038  0.65627  0.30360  Biso   1.000  H
  H250     1.0000 0.04545  0.71938  0.29750  Biso   1.000  H
  H251     1.0000 0.11975  0.76261  0.29850  Biso   1.000  H
  H252     1.0000 0.10726  0.77197  0.29579  Biso   1.000  H
  H253     1.0000 0.03145  0.73338  0.29539  Biso   1.000  H
  H254     1.0000 0.02212  0.06997  0.46021  Biso   1.000  H
  C263     1.0000 0.06375  0.18863  0.44280  Biso   1.000  C
  C264     1.0000 0.24997  0.21133  0.26241  Biso   1.000  C
  C265     1.0000 0.32758  0.96660  0.21999  Biso   1.000  C
  H255     1.0000 0.32496  0.92599  0.24190  Biso   1.000  H
  H256     1.0000 0.37379  0.96579  0.20971  Biso   1.000  H
  H257     1.0000 0.33856  0.91191  0.24580  Biso   1.000  H
  H258     1.0000 0.37776  0.95959  0.21139  Biso   1.000  H
  H259     1.0000 0.40595  0.86740  0.22879  Biso   1.000  H
  H260     1.0000 0.38485  0.34581  0.35669  Biso   1.000  H
  C266     1.0000 0.29186  0.37262  0.37831  Biso   1.000  C
  H261     1.0000 0.98397  0.08411  0.34259  Biso   1.000  H
  H262     1.0000 0.98169  0.01461  0.30781  Biso   1.000  H
  C267     1.0000 0.07140  0.08580  0.31035  Biso   1.000  C
  H263     1.0000 0.05928  0.78908  0.25970  Biso   1.000  H
  C268     1.0000 0.07062  0.26177  0.44958  Biso   1.000  C
  C269     1.0000 0.08265  0.25827  0.42226  Biso   1.000  C
  C270     1.0000 0.18657  0.16944  0.27861  Biso   1.000  C
  H264     1.0000 0.25008  0.27658  0.26799  Biso   1.000  H
  H265     1.0000 0.24988  0.20392  0.23440  Biso   1.000  H
  H266     1.0000 0.29557  0.94673  0.20031  Biso   1.000  H
  C271     1.0000 0.24997  0.41821  0.39364  Biso   1.000  C
  C272     1.0000 0.20823  0.37242  0.37840  Biso   1.000  C
  C273     1.0000 0.09909  0.16338  0.32698  Biso   1.000  C
  C274     1.0000 0.10214  0.05105  0.27776  Biso   1.000  C
  H267     1.0000 0.05904  0.26520  0.47579  Biso   1.000  H
  H268     1.0000 0.07642  0.32379  0.45531  Biso   1.000  H
  C275     1.0000 0.10277  0.26298  0.38241  Biso   1.000  C
  C276     1.0000 0.15534  0.20466  0.31100  Biso   1.000  C
  C277     1.0000 0.15894  0.09132  0.26246  Biso   1.000  C
  H269     1.0000 0.21664  0.45437  0.40580  Biso   1.000  H
  H270     1.0000 0.28317  0.45471  0.40580  Biso   1.000  H
  C278     1.0000 0.15798  0.31282  0.36102  Biso   1.000  C
  O77      1.0000 0.07278  0.18803  0.36267  Biso   1.000  O
  O78      1.0000 0.07678  0.97387  0.26169  Biso   1.000  O
  H271     1.0000 0.15276  0.26049  0.38031  Biso   1.000  H
  H272     1.0000 0.08686  0.32029  0.37111  Biso   1.000  H
  H273     1.0000 0.14844  0.26143  0.37811  Biso   1.000  H
  O79      1.0000 0.18434  0.28083  0.32561  Biso   1.000  O
  O80      1.0000 0.18932  0.05711  0.23178  Biso   1.000  O
  H274     1.0000 0.11506  0.34588  0.35661  Biso   1.000  H
  C279     1.0000 0.11676  0.92410  0.23495  Biso   1.000  C
  C280     1.0000 0.17229  0.96660  0.22005  Biso   1.000  C
  H275     1.0000 0.16167  0.91238  0.24580  Biso   1.000  H
  H276     1.0000 0.09438  0.86679  0.22919  Biso   1.000  H
  H277     1.0000 0.12156  0.95912  0.21139  Biso   1.000  H
  H278     1.0000 0.17536  0.92599  0.24201  Biso   1.000  H
  H279     1.0000 0.12596  0.96559  0.20991  Biso   1.000  H
  H280     1.0000 0.20398  0.94680  0.20031  Biso   1.000  H
  C281     1.0000 0.67220  0.53337  0.72005  Biso   1.000  C
  C282     1.0000 0.61672  0.57593  0.73495  Biso   1.000  C
  H281     1.0000 0.66163  0.58758  0.74580  Biso   1.000  H
  H282     1.0000 0.62151  0.54091  0.71139  Biso   1.000  H
  O81      1.0000 0.68923  0.44293  0.73178  Biso   1.000  O
  H283     1.0000 0.67531  0.57398  0.74201  Biso   1.000  H
  H284     1.0000 0.62592  0.53438  0.70991  Biso   1.000  H
  H285     1.0000 0.70394  0.55317  0.70031  Biso   1.000  H
  O82      1.0000 0.57669  0.52610  0.76167  Biso   1.000  O
  H286     1.0000 0.59433  0.63317  0.72919  Biso   1.000  H
  C283     1.0000 0.65889  0.40865  0.76246  Biso   1.000  C
  C284     1.0000 0.60209  0.44892  0.77776  Biso   1.000  C
  C285     1.0000 0.68648  0.33053  0.77859  Biso   1.000  C
  C286     1.0000 0.57136  0.41417  0.81035  Biso   1.000  C
  C287     1.0000 0.65529  0.29537  0.81100  Biso   1.000  C
  C288     1.0000 0.74992  0.28871  0.76241  Biso   1.000  C
  C289     1.0000 0.51081  0.46064  0.82818  Biso   1.000  C
  C290     1.0000 0.59905  0.33666  0.82698  Biso   1.000  C
  O83      1.0000 0.68429  0.21921  0.82562  Biso   1.000  O
  C291     1.0000 0.81331  0.33053  0.77859  Biso   1.000  C
  H287     1.0000 0.74999  0.22338  0.76799  Biso   1.000  H
  H288     1.0000 0.74978  0.29611  0.73441  Biso   1.000  H
  C292     1.0000 0.53204  0.53640  0.85481  Biso   1.000  C
  H289     1.0000 0.48388  0.41592  0.84259  Biso   1.000  H
  H290     1.0000 0.48159  0.48542  0.80781  Biso   1.000  H
  O84      1.0000 0.57274  0.31201  0.86267  Biso   1.000  O
  C293     1.0000 0.65788  0.18722  0.86102  Biso   1.000  C
  C294     1.0000 0.84460  0.29537  0.81103  Biso   1.000  C
  C295     1.0000 0.84090  0.40865  0.76246  Biso   1.000  C
  C296     1.0000 0.54124  0.52044  0.89361  Biso   1.000  C
  C297     1.0000 0.54513  0.62240  0.84077  Biso   1.000  C
  C298     1.0000 0.60267  0.23699  0.88241  Biso   1.000  C
  H291     1.0000 0.65267  0.23948  0.88031  Biso   1.000  H
  H292     1.0000 0.61502  0.15408  0.85661  Biso   1.000  H
  H293     1.0000 0.64840  0.23860  0.87811  Biso   1.000  H
  C299     1.0000 0.70819  0.12762  0.87840  Biso   1.000  C
  O85      1.0000 0.81554  0.21900  0.82562  Biso   1.000  O
  C300     1.0000 0.90079  0.33652  0.82698  Biso   1.000  C
  C301     1.0000 0.89770  0.44885  0.77779  Biso   1.000  C
  O86      1.0000 0.81063  0.44306  0.73181  Biso   1.000  O
  C302     1.0000 0.56211  0.58940  0.91768  Biso   1.000  C
  O87      1.0000 0.53209  0.43330  0.90384  Biso   1.000  O
  C303     1.0000 0.56757  0.69042  0.86467  Biso   1.000  C
  O88      1.0000 0.53676  0.63519  0.80428  Biso   1.000  O
  H294     1.0000 0.58681  0.17968  0.87111  Biso   1.000  H
  C304     1.0000 0.58256  0.24170  0.92227  Biso   1.000  C
  C305     1.0000 0.79182  0.12742  0.87831  Biso   1.000  C
  C306     1.0000 0.74987  0.08182  0.89364  Biso   1.000  C
  C307     1.0000 0.84182  0.18708  0.86102  Biso   1.000  C
  C308     1.0000 0.92848  0.41424  0.81038  Biso   1.000  C
  O89      1.0000 0.92702  0.31201  0.86273  Biso   1.000  O
  O90      1.0000 0.92320  0.52583  0.76161  Biso   1.000  O
  C309     1.0000 0.82753  0.53337  0.71999  Biso   1.000  C
  O91      1.0000 0.57096  0.57910  0.95793  Biso   1.000  O
  C310     1.0000 0.57596  0.67540  0.90361  Biso   1.000  C
  C311     1.0000 0.55528  0.40999  0.94092  Biso   1.000  C
  O92      1.0000 0.58512  0.77271  0.84954  Biso   1.000  O
  C312     1.0000 0.56049  0.71648  0.78747  Biso   1.000  C
  C313     1.0000 0.57052  0.23820  0.94958  Biso   1.000  C
  C314     1.0000 0.56366  0.31140  0.94280  Biso   1.000  C
  H295     1.0000 0.71659  0.04559  0.90580  Biso   1.000  H
  H296     1.0000 0.78308  0.04532  0.90580  Biso   1.000  H
  H297     1.0000 0.85120  0.23860  0.87820  Biso   1.000  H
  H298     1.0000 0.88481  0.15422  0.85669  Biso   1.000  H
  C315     1.0000 0.89711  0.23699  0.88244  Biso   1.000  C
  H299     1.0000 0.84710  0.23968  0.88031  Biso   1.000  H
  C316     1.0000 0.98898  0.46050  0.82815  Biso   1.000  C
  C317     1.0000 0.88321  0.57573  0.73478  Biso   1.000  C
  H300     1.0000 0.82491  0.57398  0.74190  Biso   1.000  H
  H301     1.0000 0.79552  0.55330  0.70031  Biso   1.000  H
  H302     1.0000 0.87370  0.53418  0.70971  Biso   1.000  H
  H303     1.0000 0.83852  0.58812  0.74580  Biso   1.000  H
  H304     1.0000 0.87771  0.54037  0.71139  Biso   1.000  H
  C318     1.0000 0.57536  0.49007  0.97260  Biso   1.000  C
  C319     1.0000 0.60170  0.74941  0.92953  Biso   1.000  C
  H305     1.0000 0.52208  0.43000  0.96021  Biso   1.000  H
  H306     1.0000 0.59917  0.44010  0.94619  Biso   1.000  H
  C320     1.0000 0.59058  0.78450  0.80909  Biso   1.000  C
  H307     1.0000 0.54541  0.78059  0.79750  Biso   1.000  H
  H308     1.0000 0.61970  0.73742  0.79850  Biso   1.000  H
  H309     1.0000 0.60722  0.72800  0.79579  Biso   1.000  H
  H310     1.0000 0.53140  0.76658  0.79539  Biso   1.000  H
  H311     1.0000 0.55918  0.71089  0.75970  Biso   1.000  H
  H312     1.0000 0.55899  0.23483  0.97579  Biso   1.000  H
  H313     1.0000 0.57637  0.17617  0.95531  Biso   1.000  H
  H314     1.0000 0.91279  0.17968  0.87099  Biso   1.000  H
  C321     1.0000 0.91736  0.24150  0.92224  Biso   1.000  C
  C322     1.0000 0.96777  0.53633  0.85487  Biso   1.000  C
  H315     1.0000 0.01798  0.48549  0.80770  Biso   1.000  H
  H316     1.0000 0.01601  0.41579  0.84251  Biso   1.000  H
  H317     1.0000 0.90591  0.63257  0.72879  Biso   1.000  H
  H318     1.0000 0.60650  0.45343  0.95690  Biso   1.000  H
  H319     1.0000 0.53008  0.46118  0.97240  Biso   1.000  H
  C323     1.0000 0.60125  0.49687  0.01168  Biso   1.000  C
  C324     1.0000 0.67823  0.75190  0.93041  Biso   1.000  C
  H320     1.0000 0.58428  0.80820  0.92050  Biso   1.000  H
  H321     1.0000 0.58439  0.73938  0.95559  Biso   1.000  H
  H322     1.0000 0.61029  0.84369  0.80360  Biso   1.000  H
  C325     1.0000 0.93629  0.31147  0.94292  Biso   1.000  C
  C326     1.0000 0.92911  0.23800  0.94958  Biso   1.000  C
  C327     1.0000 0.95850  0.52044  0.89364  Biso   1.000  C
  C328     1.0000 0.95464  0.62233  0.84083  Biso   1.000  C
  C329     1.0000 0.61853  0.49801  0.04162  Biso   1.000  C
  C330     1.0000 0.65631  0.53243  0.02373  Biso   1.000  C
  C331     1.0000 0.71487  0.69756  0.95551  Biso   1.000  C
  C332     1.0000 0.71466  0.80625  0.90517  Biso   1.000  C
  C333     1.0000 0.94450  0.40972  0.94084  Biso   1.000  C
  H323     1.0000 0.92310  0.17590  0.95519  Biso   1.000  H
  H324     1.0000 0.94040  0.23463  0.97590  Biso   1.000  H
  O93      1.0000 0.96772  0.43323  0.90389  Biso   1.000  O
  C334     1.0000 0.93758  0.58927  0.91776  Biso   1.000  C
  C335     1.0000 0.93215  0.69055  0.86473  Biso   1.000  C
  O94      1.0000 0.96325  0.63513  0.80439  Biso   1.000  O
  H325     1.0000 0.63342  0.49902  0.06740  Biso   1.000  H
  H326     1.0000 0.58592  0.46831  0.05709  Biso   1.000  H
  C336     1.0000 0.70853  0.58502  0.00382  Biso   1.000  C
  C337     1.0000 0.78501  0.69756  0.95551  Biso   1.000  C
  O95      1.0000 0.67427  0.64388  0.97795  Biso   1.000  O
  C338     1.0000 0.78510  0.80625  0.90520  Biso   1.000  C
  O96      1.0000 0.67585  0.85992  0.88236  Biso   1.000  O
  H327     1.0000 0.90060  0.43963  0.94599  Biso   1.000  H
  H328     1.0000 0.97758  0.43000  0.96029  Biso   1.000  H
  C339     1.0000 0.92447  0.48993  0.97263  Biso   1.000  C
  C340     1.0000 0.92390  0.67533  0.90369  Biso   1.000  C
  O97      1.0000 0.92873  0.57896  0.95801  Biso   1.000  O
  O98      1.0000 0.91470  0.77278  0.84951  Biso   1.000  O
  C341     1.0000 0.93921  0.71668  0.78764  Biso   1.000  C
  H329     1.0000 0.76016  0.54462  0.98989  Biso   1.000  H
  H330     1.0000 0.73927  0.54441  0.98980  Biso   1.000  H
  C342     1.0000 0.79155  0.58509  0.00385  Biso   1.000  C
  H331     1.0000 0.73552  0.62038  0.02239  Biso   1.000  H
  O99      1.0000 0.82544  0.64381  0.97784  Biso   1.000  O
  C343     1.0000 0.82144  0.75184  0.93044  Biso   1.000  C
  O100     1.0000 0.82388  0.85992  0.88244  Biso   1.000  O
  C344     1.0000 0.70211  0.88019  0.84587  Biso   1.000  C
  H332     1.0000 0.96970  0.46091  0.97240  Biso   1.000  H
  H333     1.0000 0.89308  0.45330  0.95690  Biso   1.000  H
  C345     1.0000 0.89923  0.49667  0.01177  Biso   1.000  C
  C346     1.0000 0.89822  0.74914  0.92956  Biso   1.000  C
  C347     1.0000 0.90910  0.78423  0.80926  Biso   1.000  C
  H334     1.0000 0.89212  0.72692  0.79531  Biso   1.000  H
  H335     1.0000 0.94171  0.71197  0.75979  Biso   1.000  H
  H336     1.0000 0.96728  0.76712  0.79630  Biso   1.000  H
  H337     1.0000 0.87920  0.73769  0.79881  Biso   1.000  H
  H338     1.0000 0.95410  0.77898  0.79770  Biso   1.000  H
  H339     1.0000 0.76473  0.62058  0.02239  Biso   1.000  H
  C348     1.0000 0.84384  0.53249  0.02367  Biso   1.000  C
  C349     1.0000 0.79780  0.88019  0.84595  Biso   1.000  C
  H340     1.0000 0.73858  0.92457  0.84829  Biso   1.000  H
  H341     1.0000 0.66590  0.90477  0.82980  Biso   1.000  H
  H342     1.0000 0.71997  0.82511  0.83419  Biso   1.000  H
  C350     1.0000 0.88163  0.49774  0.04165  Biso   1.000  C
  H343     1.0000 0.91569  0.80793  0.92050  Biso   1.000  H
  H344     1.0000 0.91569  0.73911  0.95571  Biso   1.000  H
  H345     1.0000 0.89022  0.84383  0.80371  Biso   1.000  H
  H346     1.0000 0.76241  0.92633  0.84820  Biso   1.000  H
  H347     1.0000 0.77849  0.82571  0.83459  Biso   1.000  H
  H348     1.0000 0.83442  0.90289  0.82969  Biso   1.000  H
  H349     1.0000 0.91413  0.46778  0.05709  Biso   1.000  H
  H350     1.0000 0.86654  0.49862  0.06731  Biso   1.000  H
  C351     1.0000 0.32766  0.46663  0.27995  Biso   1.000  C
  C352     1.0000 0.38315  0.42407  0.26505  Biso   1.000  C
  H351     1.0000 0.33828  0.41242  0.25420  Biso   1.000  H
  H352     1.0000 0.37835  0.45909  0.28861  Biso   1.000  H
  H353     1.0000 0.32455  0.42602  0.25799  Biso   1.000  H
  H354     1.0000 0.37394  0.46562  0.29009  Biso   1.000  H
  O101     1.0000 0.31064  0.55707  0.26822  Biso   1.000  O
  H355     1.0000 0.29598  0.44683  0.29969  Biso   1.000  H
  O102     1.0000 0.42318  0.47390  0.23831  Biso   1.000  O
  H356     1.0000 0.40558  0.36683  0.27081  Biso   1.000  H
  C353     1.0000 0.34097  0.59135  0.23754  Biso   1.000  C
  C354     1.0000 0.39777  0.55108  0.22224  Biso   1.000  C
  C355     1.0000 0.31338  0.66947  0.22139  Biso   1.000  C
  C356     1.0000 0.42855  0.58583  0.18965  Biso   1.000  C
  C357     1.0000 0.34457  0.70463  0.18900  Biso   1.000  C
  C358     1.0000 0.24994  0.71129  0.23760  Biso   1.000  C
  C359     1.0000 0.48905  0.53936  0.17182  Biso   1.000  C
  C360     1.0000 0.40081  0.66334  0.17302  Biso   1.000  C
  O103     1.0000 0.31557  0.78079  0.17439  Biso   1.000  O
  C361     1.0000 0.18655  0.66947  0.22139  Biso   1.000  C
  H357     1.0000 0.24987  0.77662  0.23201  Biso   1.000  H
  H358     1.0000 0.25008  0.70389  0.26560  Biso   1.000  H
  C362     1.0000 0.46782  0.46360  0.14519  Biso   1.000  C
  H359     1.0000 0.51598  0.58408  0.15741  Biso   1.000  H
  H360     1.0000 0.51827  0.51458  0.19219  Biso   1.000  H
  O104     1.0000 0.42712  0.68799  0.13733  Biso   1.000  O
  C363     1.0000 0.34198  0.81278  0.13898  Biso   1.000  C
  C364     1.0000 0.15526  0.70463  0.18897  Biso   1.000  C
  C365     1.0000 0.15901  0.59135  0.23754  Biso   1.000  C
  C366     1.0000 0.45862  0.47956  0.10639  Biso   1.000  C
  C367     1.0000 0.45473  0.37760  0.15923  Biso   1.000  C
  C368     1.0000 0.39719  0.76301  0.11759  Biso   1.000  C
  H361     1.0000 0.34719  0.76052  0.11969  Biso   1.000  H
  H362     1.0000 0.35146  0.76140  0.12189  Biso   1.000  H
  H363     1.0000 0.38490  0.84592  0.14339  Biso   1.000  H
  C369     1.0000 0.29167  0.87238  0.12160  Biso   1.000  C
  O105     1.0000 0.18432  0.78100  0.17439  Biso   1.000  O
  C370     1.0000 0.09912  0.66348  0.17302  Biso   1.000  C
  C371     1.0000 0.10217  0.55115  0.22221  Biso   1.000  C
  O106     1.0000 0.18928  0.55694  0.26819  Biso   1.000  O
  C372     1.0000 0.43775  0.41060  0.08232  Biso   1.000  C
  O107     1.0000 0.46777  0.56670  0.09617  Biso   1.000  O
  C373     1.0000 0.43229  0.30958  0.13533  Biso   1.000  C
  O108     1.0000 0.46311  0.36481  0.19572  Biso   1.000  O
  H364     1.0000 0.41310  0.82032  0.12890  Biso   1.000  H
  C374     1.0000 0.41730  0.75830  0.07774  Biso   1.000  C
  C375     1.0000 0.20810  0.87258  0.12169  Biso   1.000  C
  C376     1.0000 0.24999  0.91818  0.10636  Biso   1.000  C
  C377     1.0000 0.15810  0.81292  0.13898  Biso   1.000  C
  C378     1.0000 0.07138  0.58576  0.18963  Biso   1.000  C
  O109     1.0000 0.07289  0.68799  0.13727  Biso   1.000  O
  O110     1.0000 0.07666  0.47417  0.23839  Biso   1.000  O
  C379     1.0000 0.17238  0.46663  0.28001  Biso   1.000  C
  O111     1.0000 0.42891  0.42090  0.04207  Biso   1.000  O
  C380     1.0000 0.42395  0.32460  0.09639  Biso   1.000  C
  C381     1.0000 0.44458  0.59001  0.05908  Biso   1.000  C
  O112     1.0000 0.41474  0.22729  0.15046  Biso   1.000  O
  C382     1.0000 0.43937  0.28352  0.21253  Biso   1.000  C
  C383     1.0000 0.42934  0.76180  0.05042  Biso   1.000  C
  C384     1.0000 0.43620  0.68860  0.05720  Biso   1.000  C
  H365     1.0000 0.28327  0.95441  0.09420  Biso   1.000  H
  H366     1.0000 0.21678  0.95468  0.09420  Biso   1.000  H
  H367     1.0000 0.14866  0.76140  0.12180  Biso   1.000  H
  H368     1.0000 0.11511  0.84578  0.14331  Biso   1.000  H
  C385     1.0000 0.10280  0.76301  0.11756  Biso   1.000  C
  H369     1.0000 0.15276  0.76032  0.11969  Biso   1.000  H
  C386     1.0000 0.01088  0.53950  0.17185  Biso   1.000  C
  C387     1.0000 0.11665  0.42427  0.26523  Biso   1.000  C
  H370     1.0000 0.17495  0.42602  0.25810  Biso   1.000  H
  H371     1.0000 0.20434  0.44670  0.29969  Biso   1.000  H
  H372     1.0000 0.12616  0.46582  0.29029  Biso   1.000  H
  H373     1.0000 0.16135  0.41188  0.25420  Biso   1.000  H
  H374     1.0000 0.12215  0.45963  0.28861  Biso   1.000  H
  C388     1.0000 0.42450  0.50993  0.02740  Biso   1.000  C
  C389     1.0000 0.39821  0.25059  0.07047  Biso   1.000  C
  H375     1.0000 0.47778  0.57000  0.03979  Biso   1.000  H
  H376     1.0000 0.40069  0.55990  0.05381  Biso   1.000  H
  C390     1.0000 0.40929  0.21550  0.19091  Biso   1.000  C
  H377     1.0000 0.45446  0.21941  0.20250  Biso   1.000  H
  H378     1.0000 0.38016  0.26258  0.20150  Biso   1.000  H
  H379     1.0000 0.39269  0.27200  0.20421  Biso   1.000  H
  H380     1.0000 0.46846  0.23342  0.20461  Biso   1.000  H
  H381     1.0000 0.44068  0.28911  0.24030  Biso   1.000  H
  H382     1.0000 0.44092  0.76517  0.02421  Biso   1.000  H
  H383     1.0000 0.42349  0.82383  0.04469  Biso   1.000  H
  H384     1.0000 0.08707  0.82032  0.12901  Biso   1.000  H
  C391     1.0000 0.08250  0.75850  0.07776  Biso   1.000  C
  C392     1.0000 0.03210  0.46367  0.14513  Biso   1.000  C
  H385     1.0000 0.98188  0.51451  0.19230  Biso   1.000  H
  H386     1.0000 0.98386  0.58421  0.15749  Biso   1.000  H
  H387     1.0000 0.09395  0.36743  0.27121  Biso   1.000  H
  H388     1.0000 0.39341  0.54657  0.04310  Biso   1.000  H
  H389     1.0000 0.46979  0.53882  0.02760  Biso   1.000  H
  C393     1.0000 0.39867  0.50313  0.98832  Biso   1.000  C
  C394     1.0000 0.32163  0.24810  0.06959  Biso   1.000  C
  H390     1.0000 0.41558  0.19180  0.07950  Biso   1.000  H
  H391     1.0000 0.41547  0.26062  0.04441  Biso   1.000  H
  H392     1.0000 0.38958  0.15631  0.19641  Biso   1.000  H
  C395     1.0000 0.06357  0.68853  0.05708  Biso   1.000  C
  C396     1.0000 0.07075  0.76200  0.05042  Biso   1.000  C
  C397     1.0000 0.04136  0.47956  0.10636  Biso   1.000  C
  C398     1.0000 0.04522  0.37767  0.15918  Biso   1.000  C
  C399     1.0000 0.38133  0.50199  0.95838  Biso   1.000  C
  C400     1.0000 0.34355  0.46757  0.97627  Biso   1.000  C
  C401     1.0000 0.28499  0.30244  0.04449  Biso   1.000  C
  C402     1.0000 0.28525  0.19375  0.09483  Biso   1.000  C
  C403     1.0000 0.05541  0.59028  0.05916  Biso   1.000  C
  H393     1.0000 0.07682  0.82410  0.04481  Biso   1.000  H
  H394     1.0000 0.05951  0.76537  0.02410  Biso   1.000  H
  O113     1.0000 0.03215  0.56677  0.09611  Biso   1.000  O
  C404     1.0000 0.06228  0.41073  0.08224  Biso   1.000  C
  C405     1.0000 0.06772  0.30945  0.13528  Biso   1.000  C
  O114     1.0000 0.03666  0.36487  0.19561  Biso   1.000  O
  H395     1.0000 0.36644  0.50098  0.93260  Biso   1.000  H
  H396     1.0000 0.41394  0.53169  0.94289  Biso   1.000  H
  C406     1.0000 0.29133  0.41498  0.99618  Biso   1.000  C
  C407     1.0000 0.21486  0.30244  0.04449  Biso   1.000  C
  O115     1.0000 0.32559  0.35612  0.02205  Biso   1.000  O
  C408     1.0000 0.21476  0.19375  0.09480  Biso   1.000  C
  O116     1.0000 0.32401  0.14008  0.11764  Biso   1.000  O
  H397     1.0000 0.09931  0.56037  0.05401  Biso   1.000  H
  H398     1.0000 0.02228  0.57000  0.03971  Biso   1.000  H
  C409     1.0000 0.07539  0.51007  0.02735  Biso   1.000  C
  C410     1.0000 0.07601  0.32467  0.09631  Biso   1.000  C
  O117     1.0000 0.07113  0.42104  0.04199  Biso   1.000  O
  O118     1.0000 0.08516  0.22722  0.15049  Biso   1.000  O
  C411     1.0000 0.06065  0.28332  0.21236  Biso   1.000  C
  H399     1.0000 0.23970  0.45538  0.01011  Biso   1.000  H
  H400     1.0000 0.26059  0.45559  0.01020  Biso   1.000  H
  C412     1.0000 0.20837  0.41491  0.99615  Biso   1.000  C
  H401     1.0000 0.26435  0.37962  0.97761  Biso   1.000  H
  O119     1.0000 0.17447  0.35619  0.02216  Biso   1.000  O
  C413     1.0000 0.17842  0.24816  0.06956  Biso   1.000  C
  O120     1.0000 0.17598  0.14008  0.11756  Biso   1.000  O
  C414     1.0000 0.29776  0.11981  0.15413  Biso   1.000  C
  C415     1.0000 0.10063  0.50333  0.98821  Biso   1.000  C
  H402     1.0000 0.03021  0.53909  0.02760  Biso   1.000  H
  H403     1.0000 0.10678  0.54670  0.04310  Biso   1.000  H
  C416     1.0000 0.10164  0.25086  0.07044  Biso   1.000  C
  C417     1.0000 0.09076  0.21577  0.19074  Biso   1.000  C
  H404     1.0000 0.10779  0.27308  0.20469  Biso   1.000  H
  H405     1.0000 0.05815  0.28803  0.24019  Biso   1.000  H
  H406     1.0000 0.03258  0.23288  0.20370  Biso   1.000  H
  H407     1.0000 0.12066  0.26231  0.20119  Biso   1.000  H
  H408     1.0000 0.04576  0.22102  0.20230  Biso   1.000  H
  H409     1.0000 0.23514  0.37942  0.97761  Biso   1.000  H
  C418     1.0000 0.15607  0.46751  0.97633  Biso   1.000  C
  C419     1.0000 0.20206  0.11981  0.15405  Biso   1.000  C
  H410     1.0000 0.26129  0.07543  0.15171  Biso   1.000  H
  H411     1.0000 0.33396  0.09523  0.17020  Biso   1.000  H
  H412     1.0000 0.27989  0.17489  0.16581  Biso   1.000  H
  C420     1.0000 0.11828  0.50226  0.95835  Biso   1.000  C
  H413     1.0000 0.08418  0.19207  0.07950  Biso   1.000  H
  H414     1.0000 0.08422  0.26089  0.04429  Biso   1.000  H
  H415     1.0000 0.10969  0.15617  0.19629  Biso   1.000  H
  H416     1.0000 0.23750  0.07367  0.15180  Biso   1.000  H
  H417     1.0000 0.22137  0.17429  0.16541  Biso   1.000  H
  H418     1.0000 0.16550  0.09711  0.17031  Biso   1.000  H
  H419     1.0000 0.08578  0.53222  0.94289  Biso   1.000  H
  H420     1.0000 0.13337  0.50138  0.93269  Biso   1.000  H
  C421     1.0000 0.61668  0.92430  0.26523  Biso   1.000  C
  O121     1.0000 0.57663  0.97414  0.23839  Biso   1.000  O
  C422     1.0000 0.67235  0.96660  0.28001  Biso   1.000  C
  H421     1.0000 0.67497  0.92599  0.25810  Biso   1.000  H
  H422     1.0000 0.62619  0.96579  0.29029  Biso   1.000  H
  H423     1.0000 0.66137  0.91191  0.25420  Biso   1.000  H
  H424     1.0000 0.62218  0.95959  0.28861  Biso   1.000  H
  H425     1.0000 0.59398  0.86740  0.27121  Biso   1.000  H
  C423     1.0000 0.60214  0.05118  0.22221  Biso   1.000  C
  O122     1.0000 0.68926  0.05697  0.26819  Biso   1.000  O
  H426     1.0000 0.70436  0.94673  0.29969  Biso   1.000  H
  C424     1.0000 0.57136  0.08580  0.18963  Biso   1.000  C
  C425     1.0000 0.65899  0.09139  0.23754  Biso   1.000  C
  C426     1.0000 0.51090  0.03946  0.17185  Biso   1.000  C
  C427     1.0000 0.59910  0.16345  0.17302  Biso   1.000  C
  C428     1.0000 0.68657  0.16944  0.22139  Biso   1.000  C
  C429     1.0000 0.53212  0.96370  0.14513  Biso   1.000  C
  H427     1.0000 0.48186  0.01448  0.19230  Biso   1.000  H
  H428     1.0000 0.48388  0.08418  0.15749  Biso   1.000  H
  C430     1.0000 0.65529  0.20466  0.18897  Biso   1.000  C
  O123     1.0000 0.57287  0.18796  0.13727  Biso   1.000  O
  C431     1.0000 0.74996  0.21133  0.23760  Biso   1.000  C
  C432     1.0000 0.54520  0.87770  0.15918  Biso   1.000  C
  C433     1.0000 0.54133  0.97953  0.10636  Biso   1.000  C
  O124     1.0000 0.68435  0.28103  0.17439  Biso   1.000  O
  C434     1.0000 0.60278  0.26298  0.11756  Biso   1.000  C
  C435     1.0000 0.81336  0.16944  0.22139  Biso   1.000  C
  H429     1.0000 0.74985  0.27658  0.23201  Biso   1.000  H
  H430     1.0000 0.75005  0.20392  0.26560  Biso   1.000  H
  O125     1.0000 0.53664  0.86484  0.19561  Biso   1.000  O
  C436     1.0000 0.56769  0.80948  0.13528  Biso   1.000  C
  C437     1.0000 0.56225  0.91070  0.08224  Biso   1.000  C
  O126     1.0000 0.53212  0.06681  0.09611  Biso   1.000  O
  C438     1.0000 0.65807  0.31288  0.13898  Biso   1.000  C
  C439     1.0000 0.58247  0.25847  0.07776  Biso   1.000  C
  H431     1.0000 0.64869  0.26143  0.12180  Biso   1.000  H
  H432     1.0000 0.58709  0.32029  0.12901  Biso   1.000  H
  H433     1.0000 0.65279  0.26029  0.11969  Biso   1.000  H
  C440     1.0000 0.84460  0.20466  0.18900  Biso   1.000  C
  C441     1.0000 0.84099  0.09132  0.23754  Biso   1.000  C
  C442     1.0000 0.56068  0.78329  0.21236  Biso   1.000  C
  O127     1.0000 0.58513  0.72719  0.15049  Biso   1.000  O
  C443     1.0000 0.57599  0.82470  0.09631  Biso   1.000  C
  O128     1.0000 0.57115  0.92100  0.04199  Biso   1.000  O
  C444     1.0000 0.55538  0.09031  0.05916  Biso   1.000  C
  H434     1.0000 0.61508  0.34581  0.14331  Biso   1.000  H
  C445     1.0000 0.70807  0.37262  0.12169  Biso   1.000  C
  C446     1.0000 0.56359  0.18850  0.05708  Biso   1.000  C
  C447     1.0000 0.57077  0.26197  0.05042  Biso   1.000  C
  C448     1.0000 0.90084  0.16338  0.17302  Biso   1.000  C
  O129     1.0000 0.81559  0.28083  0.17439  Biso   1.000  O
  C449     1.0000 0.89779  0.05105  0.22224  Biso   1.000  C
  O130     1.0000 0.81061  0.05711  0.26822  Biso   1.000  O
  C450     1.0000 0.59078  0.71581  0.19074  Biso   1.000  C
  H435     1.0000 0.60777  0.77312  0.20469  Biso   1.000  H
  H436     1.0000 0.53256  0.73291  0.20370  Biso   1.000  H
  H437     1.0000 0.62069  0.76227  0.20119  Biso   1.000  H
  H438     1.0000 0.54579  0.72099  0.20230  Biso   1.000  H
  H439     1.0000 0.55818  0.78800  0.24019  Biso   1.000  H
  C451     1.0000 0.60167  0.75089  0.07044  Biso   1.000  C
  C452     1.0000 0.57542  0.01010  0.02735  Biso   1.000  C
  H440     1.0000 0.59929  0.06041  0.05401  Biso   1.000  H
  H441     1.0000 0.52231  0.06997  0.03971  Biso   1.000  H
  C453     1.0000 0.74996  0.41821  0.10636  Biso   1.000  C
  C454     1.0000 0.79170  0.37242  0.12160  Biso   1.000  C
  H442     1.0000 0.57679  0.32413  0.04481  Biso   1.000  H
  H443     1.0000 0.55948  0.26541  0.02410  Biso   1.000  H
  O131     1.0000 0.92715  0.18803  0.13733  Biso   1.000  O
  C455     1.0000 0.92853  0.08580  0.18965  Biso   1.000  C
  C456     1.0000 0.84201  0.31282  0.13898  Biso   1.000  C
  O132     1.0000 0.92315  0.97387  0.23831  Biso   1.000  O
  C457     1.0000 0.82769  0.96660  0.27995  Biso   1.000  C
  H444     1.0000 0.60967  0.65621  0.19629  Biso   1.000  H
  H445     1.0000 0.58420  0.69210  0.07950  Biso   1.000  H
  H446     1.0000 0.58419  0.76093  0.04429  Biso   1.000  H
  C458     1.0000 0.67845  0.74820  0.06956  Biso   1.000  C
  C459     1.0000 0.60065  0.00330  0.98821  Biso   1.000  C
  H447     1.0000 0.53018  0.03913  0.02760  Biso   1.000  H
  H448     1.0000 0.60681  0.04667  0.04310  Biso   1.000  H
  H449     1.0000 0.78329  0.45437  0.09420  Biso   1.000  H
  H450     1.0000 0.71681  0.45471  0.09420  Biso   1.000  H
  C460     1.0000 0.89717  0.26298  0.11759  Biso   1.000  C
  C461     1.0000 0.98907  0.03933  0.17182  Biso   1.000  C
  H451     1.0000 0.84717  0.26049  0.11969  Biso   1.000  H
  H452     1.0000 0.88487  0.34588  0.14339  Biso   1.000  H
  H453     1.0000 0.85149  0.26143  0.12189  Biso   1.000  H
  C462     1.0000 0.88317  0.92410  0.26505  Biso   1.000  C
  H454     1.0000 0.83826  0.91238  0.25420  Biso   1.000  H
  H455     1.0000 0.87838  0.95912  0.28861  Biso   1.000  H
  H456     1.0000 0.82458  0.92599  0.25799  Biso   1.000  H
  H457     1.0000 0.87397  0.96559  0.29009  Biso   1.000  H
  H458     1.0000 0.79595  0.94680  0.29969  Biso   1.000  H
  C463     1.0000 0.71488  0.80248  0.04449  Biso   1.000  C
  C464     1.0000 0.71478  0.69372  0.09480  Biso   1.000  C
  C465     1.0000 0.65604  0.96747  0.97633  Biso   1.000  C
  C466     1.0000 0.61826  0.00229  0.95835  Biso   1.000  C
  H459     1.0000 0.91307  0.32029  0.12890  Biso   1.000  H
  C467     1.0000 0.91728  0.25827  0.07774  Biso   1.000  C
  C468     1.0000 0.96784  0.96363  0.14519  Biso   1.000  C
  H460     1.0000 0.01596  0.08411  0.15741  Biso   1.000  H
  H461     1.0000 0.01830  0.01461  0.19219  Biso   1.000  H
  H462     1.0000 0.90555  0.86679  0.27081  Biso   1.000  H
  O133     1.0000 0.67444  0.85622  0.02216  Biso   1.000  O
  C469     1.0000 0.78502  0.80248  0.04449  Biso   1.000  C
  C470     1.0000 0.78522  0.69378  0.09483  Biso   1.000  C
  O134     1.0000 0.67601  0.64004  0.11756  Biso   1.000  O
  C471     1.0000 0.70834  0.91488  0.99615  Biso   1.000  C
  H463     1.0000 0.58575  0.03219  0.94289  Biso   1.000  H
  H464     1.0000 0.63334  0.00141  0.93269  Biso   1.000  H
  C472     1.0000 0.93618  0.18863  0.05720  Biso   1.000  C
  C473     1.0000 0.92931  0.26177  0.05042  Biso   1.000  C
  C474     1.0000 0.95859  0.97953  0.10639  Biso   1.000  C
  C475     1.0000 0.95475  0.87757  0.15923  Biso   1.000  C
  C476     1.0000 0.82161  0.74813  0.06959  Biso   1.000  C
  O135     1.0000 0.82562  0.85615  0.02205  Biso   1.000  O
  O136     1.0000 0.82404  0.64011  0.11764  Biso   1.000  O
  C477     1.0000 0.70209  0.61977  0.15405  Biso   1.000  C
  H465     1.0000 0.73972  0.95542  0.01011  Biso   1.000  H
  H466     1.0000 0.76062  0.95562  0.01020  Biso   1.000  H
  H467     1.0000 0.73516  0.87939  0.97761  Biso   1.000  H
  C478     1.0000 0.79136  0.91501  0.99618  Biso   1.000  C
  C479     1.0000 0.94460  0.08997  0.05908  Biso   1.000  C
  H468     1.0000 0.94089  0.26520  0.02421  Biso   1.000  H
  H469     1.0000 0.92351  0.32379  0.04469  Biso   1.000  H
  C480     1.0000 0.93778  0.91063  0.08232  Biso   1.000  C
  O137     1.0000 0.96779  0.06667  0.09617  Biso   1.000  O
  C481     1.0000 0.93231  0.80955  0.13533  Biso   1.000  C
  O138     1.0000 0.96308  0.86477  0.19572  Biso   1.000  O
  C482     1.0000 0.89819  0.75056  0.07047  Biso   1.000  C
  C483     1.0000 0.79778  0.61977  0.15413  Biso   1.000  C
  H470     1.0000 0.73748  0.57371  0.15180  Biso   1.000  H
  H471     1.0000 0.72139  0.67432  0.16541  Biso   1.000  H
  H472     1.0000 0.66547  0.59708  0.17031  Biso   1.000  H
  H473     1.0000 0.76437  0.87959  0.97761  Biso   1.000  H
  C484     1.0000 0.84353  0.96761  0.97627  Biso   1.000  C
  C485     1.0000 0.92447  0.00990  0.02740  Biso   1.000  C
  H474     1.0000 0.90067  0.05987  0.05381  Biso   1.000  H
  H475     1.0000 0.97781  0.06997  0.03979  Biso   1.000  H
  C486     1.0000 0.92393  0.82457  0.09639  Biso   1.000  C
  O139     1.0000 0.92888  0.92094  0.04207  Biso   1.000  O
  O140     1.0000 0.91471  0.72732  0.15046  Biso   1.000  O
  C487     1.0000 0.93935  0.78349  0.21253  Biso   1.000  C
  H476     1.0000 0.91561  0.69183  0.07950  Biso   1.000  H
  H477     1.0000 0.91550  0.76059  0.04441  Biso   1.000  H
  H478     1.0000 0.76126  0.57539  0.15171  Biso   1.000  H
  H479     1.0000 0.83399  0.59519  0.17020  Biso   1.000  H
  H480     1.0000 0.77987  0.67493  0.16581  Biso   1.000  H
  C488     1.0000 0.88136  0.00195  0.95838  Biso   1.000  C
  C489     1.0000 0.89864  0.00310  0.98832  Biso   1.000  C
  H481     1.0000 0.89338  0.04660  0.04310  Biso   1.000  H
  H482     1.0000 0.96981  0.03879  0.02760  Biso   1.000  H
  C490     1.0000 0.90926  0.71547  0.19091  Biso   1.000  C
  H483     1.0000 0.95448  0.71938  0.20250  Biso   1.000  H
  H484     1.0000 0.88018  0.76261  0.20150  Biso   1.000  H
  H485     1.0000 0.89267  0.77197  0.20421  Biso   1.000  H
  H486     1.0000 0.96848  0.73338  0.20461  Biso   1.000  H
  H487     1.0000 0.94065  0.78908  0.24030  Biso   1.000  H
  H488     1.0000 0.86647  0.00101  0.93260  Biso   1.000  H
  H489     1.0000 0.91397  0.03172  0.94289  Biso   1.000  H
  H490     1.0000 0.88960  0.65627  0.19641  Biso   1.000  H
  C491     1.0000 0.38318  0.07570  0.73478  Biso   1.000  C
  C492     1.0000 0.32751  0.03340  0.71999  Biso   1.000  C
  H491     1.0000 0.32489  0.07401  0.74190  Biso   1.000  H
  H492     1.0000 0.37373  0.03421  0.70971  Biso   1.000  H
  H493     1.0000 0.33849  0.08809  0.74580  Biso   1.000  H
  H494     1.0000 0.37774  0.04041  0.71139  Biso   1.000  H
  O141     1.0000 0.42323  0.02586  0.76161  Biso   1.000  O
  H495     1.0000 0.40589  0.13260  0.72879  Biso   1.000  H
  H496     1.0000 0.29550  0.05327  0.70031  Biso   1.000  H
  O142     1.0000 0.31061  0.94303  0.73181  Biso   1.000  O
  C493     1.0000 0.39772  0.94882  0.77779  Biso   1.000  C
  C494     1.0000 0.34088  0.90861  0.76246  Biso   1.000  C
  C495     1.0000 0.42850  0.91420  0.81038  Biso   1.000  C
  C496     1.0000 0.31334  0.83056  0.77859  Biso   1.000  C
  C497     1.0000 0.40076  0.83655  0.82698  Biso   1.000  C
  C498     1.0000 0.48896  0.96054  0.82815  Biso   1.000  C
  C499     1.0000 0.34458  0.79534  0.81103  Biso   1.000  C
  C500     1.0000 0.24995  0.78867  0.76241  Biso   1.000  C
  O143     1.0000 0.42699  0.81204  0.86273  Biso   1.000  O
  C501     1.0000 0.46774  0.03630  0.85487  Biso   1.000  C
  H497     1.0000 0.51800  0.98552  0.80770  Biso   1.000  H
  H498     1.0000 0.51598  0.91582  0.84251  Biso   1.000  H
  O144     1.0000 0.31551  0.71897  0.82562  Biso   1.000  O
  C502     1.0000 0.18651  0.83056  0.77859  Biso   1.000  C
  H499     1.0000 0.25002  0.72342  0.76799  Biso   1.000  H
  H500     1.0000 0.24981  0.79608  0.73441  Biso   1.000  H
  C503     1.0000 0.39708  0.73702  0.88244  Biso   1.000  C
  C504     1.0000 0.45853  0.02047  0.89364  Biso   1.000  C
  C505     1.0000 0.45466  0.12230  0.84083  Biso   1.000  C
  C506     1.0000 0.34179  0.68712  0.86102  Biso   1.000  C
  C507     1.0000 0.15527  0.79534  0.81100  Biso   1.000  C
  C508     1.0000 0.15887  0.90868  0.76246  Biso   1.000  C
  H501     1.0000 0.35117  0.73857  0.87820  Biso   1.000  H
  H502     1.0000 0.34707  0.73971  0.88031  Biso   1.000  H
  H503     1.0000 0.41277  0.67971  0.87099  Biso   1.000  H
  C509     1.0000 0.41739  0.74153  0.92224  Biso   1.000  C
  C510     1.0000 0.43761  0.08930  0.91776  Biso   1.000  C
  O145     1.0000 0.46774  0.93319  0.90389  Biso   1.000  O
  C511     1.0000 0.43217  0.19052  0.86473  Biso   1.000  C
  O146     1.0000 0.46322  0.13516  0.80439  Biso   1.000  O
  H504     1.0000 0.38478  0.65419  0.85669  Biso   1.000  H
  C512     1.0000 0.29179  0.62738  0.87831  Biso   1.000  C
  C513     1.0000 0.09902  0.83662  0.82698  Biso   1.000  C
  O147     1.0000 0.18432  0.71917  0.82562  Biso   1.000  O
  C514     1.0000 0.10207  0.94895  0.77776  Biso   1.000  C
  O148     1.0000 0.18925  0.94289  0.73178  Biso   1.000  O
  C515     1.0000 0.43627  0.81150  0.94292  Biso   1.000  C
  C516     1.0000 0.42909  0.73803  0.94958  Biso   1.000  C
  C517     1.0000 0.42387  0.17530  0.90369  Biso   1.000  C
  O149     1.0000 0.42876  0.07900  0.95801  Biso   1.000  O
  C518     1.0000 0.44448  0.90969  0.94084  Biso   1.000  C
  O150     1.0000 0.41473  0.27281  0.84951  Biso   1.000  O
  C519     1.0000 0.43918  0.21671  0.78764  Biso   1.000  C
  C520     1.0000 0.24990  0.58179  0.89364  Biso   1.000  C
  C521     1.0000 0.20817  0.62758  0.87840  Biso   1.000  C
  O151     1.0000 0.07271  0.81197  0.86267  Biso   1.000  O
  C522     1.0000 0.07133  0.91420  0.81035  Biso   1.000  C
  C523     1.0000 0.15791  0.68718  0.86102  Biso   1.000  C
  O152     1.0000 0.07671  0.02613  0.76167  Biso   1.000  O
  C524     1.0000 0.17223  0.03340  0.72005  Biso   1.000  C
  H505     1.0000 0.42307  0.67587  0.95519  Biso   1.000  H
  H506     1.0000 0.44038  0.73459  0.97590  Biso   1.000  H
  C525     1.0000 0.39824  0.24911  0.92956  Biso   1.000  C
  C526     1.0000 0.42449  0.98990  0.97263  Biso   1.000  C
  H507     1.0000 0.40058  0.93959  0.94599  Biso   1.000  H
  H508     1.0000 0.47760  0.93003  0.96029  Biso   1.000  H
  C527     1.0000 0.40908  0.28419  0.80926  Biso   1.000  C
  H509     1.0000 0.39210  0.22688  0.79531  Biso   1.000  H
  H510     1.0000 0.44168  0.21200  0.75979  Biso   1.000  H
  H511     1.0000 0.46731  0.26709  0.79630  Biso   1.000  H
  H512     1.0000 0.37923  0.23773  0.79881  Biso   1.000  H
  H513     1.0000 0.45412  0.27901  0.79770  Biso   1.000  H
  H514     1.0000 0.21657  0.54563  0.90580  Biso   1.000  H
  H515     1.0000 0.28310  0.54529  0.90580  Biso   1.000  H
  C528     1.0000 0.10270  0.73702  0.88241  Biso   1.000  C
  C529     1.0000 0.01084  0.96067  0.82818  Biso   1.000  C
  H516     1.0000 0.15269  0.73951  0.88031  Biso   1.000  H
  H517     1.0000 0.11499  0.65412  0.85661  Biso   1.000  H
  H518     1.0000 0.14837  0.73857  0.87811  Biso   1.000  H
  C530     1.0000 0.11669  0.07590  0.73495  Biso   1.000  C
  H519     1.0000 0.16161  0.08762  0.74580  Biso   1.000  H
  H520     1.0000 0.12149  0.04088  0.71139  Biso   1.000  H
  H521     1.0000 0.17529  0.07401  0.74201  Biso   1.000  H
  H522     1.0000 0.12589  0.03441  0.70991  Biso   1.000  H
  H523     1.0000 0.20391  0.05320  0.70031  Biso   1.000  H
  H524     1.0000 0.41571  0.30790  0.92050  Biso   1.000  H
  H525     1.0000 0.41567  0.23907  0.95571  Biso   1.000  H
  C531     1.0000 0.32147  0.25180  0.93044  Biso   1.000  C
  H526     1.0000 0.46968  0.96087  0.97240  Biso   1.000  H
  H527     1.0000 0.39310  0.95333  0.95690  Biso   1.000  H
  C532     1.0000 0.39921  0.99670  0.01177  Biso   1.000  C
  H528     1.0000 0.39019  0.34379  0.80371  Biso   1.000  H
  H529     1.0000 0.08679  0.67971  0.87111  Biso   1.000  H
  C533     1.0000 0.08259  0.74173  0.92227  Biso   1.000  C
  C534     1.0000 0.03202  0.03637  0.85481  Biso   1.000  C
  H530     1.0000 0.98391  0.91589  0.84259  Biso   1.000  H
  H531     1.0000 0.98162  0.98539  0.80781  Biso   1.000  H
  H532     1.0000 0.09431  0.13321  0.72919  Biso   1.000  H
  C535     1.0000 0.28503  0.19752  0.95551  Biso   1.000  C
  C536     1.0000 0.28513  0.30628  0.90520  Biso   1.000  C
  C537     1.0000 0.38160  0.99771  0.04165  Biso   1.000  C
  C538     1.0000 0.34382  0.03253  0.02367  Biso   1.000  C
  C539     1.0000 0.07055  0.73823  0.94958  Biso   1.000  C
  C540     1.0000 0.06368  0.81137  0.94280  Biso   1.000  C
  C541     1.0000 0.04127  0.02047  0.89361  Biso   1.000  C
  C542     1.0000 0.04516  0.12243  0.84077  Biso   1.000  C
  O153     1.0000 0.32542  0.14378  0.97784  Biso   1.000  O
  C543     1.0000 0.21485  0.19752  0.95551  Biso   1.000  C
  C544     1.0000 0.21464  0.30622  0.90517  Biso   1.000  C
  O154     1.0000 0.32390  0.35996  0.88244  Biso   1.000  O
  H533     1.0000 0.41411  0.96781  0.05709  Biso   1.000  H
  H534     1.0000 0.36652  0.99859  0.06731  Biso   1.000  H
  C545     1.0000 0.29152  0.08512  0.00385  Biso   1.000  C
  H535     1.0000 0.05897  0.73480  0.97579  Biso   1.000  H
  H536     1.0000 0.07640  0.67621  0.95531  Biso   1.000  H
  C546     1.0000 0.05526  0.91003  0.94092  Biso   1.000  C
  C547     1.0000 0.06213  0.08937  0.91768  Biso   1.000  C
  O155     1.0000 0.03207  0.93333  0.90384  Biso   1.000  O
  C548     1.0000 0.06755  0.19045  0.86467  Biso   1.000  C
  O156     1.0000 0.03678  0.13523  0.80428  Biso   1.000  O
  C549     1.0000 0.17825  0.25187  0.93041  Biso   1.000  C
  O157     1.0000 0.17429  0.14385  0.97795  Biso   1.000  O
  O158     1.0000 0.17582  0.35989  0.88236  Biso   1.000  O
  C550     1.0000 0.29778  0.38023  0.84595  Biso   1.000  C
  H537     1.0000 0.26019  0.04458  0.98989  Biso   1.000  H
  H538     1.0000 0.23929  0.04438  0.98980  Biso   1.000  H
  H539     1.0000 0.26470  0.12061  0.02239  Biso   1.000  H
  C551     1.0000 0.20850  0.08499  0.00382  Biso   1.000  C
  C552     1.0000 0.07539  0.99010  0.97260  Biso   1.000  C
  H540     1.0000 0.02210  0.93003  0.96021  Biso   1.000  H
  H541     1.0000 0.09919  0.94013  0.94619  Biso   1.000  H
  O159     1.0000 0.07098  0.07906  0.95793  Biso   1.000  O
  C553     1.0000 0.07594  0.17543  0.90361  Biso   1.000  C
  O160     1.0000 0.08515  0.27268  0.84954  Biso   1.000  O
  C554     1.0000 0.06051  0.21651  0.78747  Biso   1.000  C
  C555     1.0000 0.10168  0.24944  0.92953  Biso   1.000  C
  C556     1.0000 0.20208  0.38023  0.84587  Biso   1.000  C
  H542     1.0000 0.26239  0.42629  0.84820  Biso   1.000  H
  H543     1.0000 0.27852  0.32568  0.83459  Biso   1.000  H
  H544     1.0000 0.33439  0.40292  0.82969  Biso   1.000  H
  H545     1.0000 0.23554  0.12041  0.02239  Biso   1.000  H
  C557     1.0000 0.15633  0.03239  0.02373  Biso   1.000  C
  H546     1.0000 0.10648  0.95340  0.95690  Biso   1.000  H
  H547     1.0000 0.03010  0.96121  0.97240  Biso   1.000  H
  C558     1.0000 0.10122  0.99690  0.01168  Biso   1.000  C
  C559     1.0000 0.09060  0.28453  0.80909  Biso   1.000  C
  H548     1.0000 0.04538  0.28062  0.79750  Biso   1.000  H
  H549     1.0000 0.11968  0.23739  0.79850  Biso   1.000  H
  H550     1.0000 0.10719  0.22803  0.79579  Biso   1.000  H
  H551     1.0000 0.03138  0.26662  0.79539  Biso   1.000  H
  H552     1.0000 0.05921  0.21092  0.75970  Biso   1.000  H
  H553     1.0000 0.08430  0.30817  0.92050  Biso   1.000  H
  H554     1.0000 0.08436  0.23941  0.95559  Biso   1.000  H
  H555     1.0000 0.23860  0.42461  0.84829  Biso   1.000  H
  H556     1.0000 0.16587  0.40481  0.82980  Biso   1.000  H
  H557     1.0000 0.22000  0.32507  0.83419  Biso   1.000  H
  C560     1.0000 0.11851  0.99805  0.04162  Biso   1.000  C
  H558     1.0000 0.11031  0.34373  0.80360  Biso   1.000  H
  H559     1.0000 0.13339  0.99899  0.06740  Biso   1.000  H
  H560     1.0000 0.08595  0.96828  0.05709  Biso   1.000  H
  Ne1      1.0000 0.24996  0.48993  0.12834  Biso   1.000  Ne
  He1      1.0000 0.25037  0.30591  0.21653  Biso   1.000  He
  He2      1.0000 0.24991  0.68086  0.01609  Biso   1.000  He
  Ar1      1.0000 0.25056  0.47433  0.13946  Biso   1.000  Ar
  Ne2      1.0000 0.74997  0.48993  0.37166  Biso   1.000  Ne
  He3      1.0000 0.75009  0.66105  0.46575  Biso   1.000  He
  He4      1.0000 0.74956  0.30220  0.28158  Biso   1.000  He
  Ar2      1.0000 0.75017  0.49326  0.36997  Biso   1.000  Ar
  Ne3      1.0000 0.24997  0.98992  0.37166  Biso   1.000  Ne
  He5      1.0000 0.25009  0.16105  0.46573  Biso   1.000  He
  He6      1.0000 0.24954  0.80215  0.28159  Biso   1.000  He
  Ar3      1.0000 0.25012  0.99328  0.36997  Biso   1.000  Ar
  Ne4      1.0000 0.24991  0.51007  0.62834  Biso   1.000  Ne
  He7      1.0000 0.25031  0.70051  0.71980  Biso   1.000  He
  He8      1.0000 0.24987  0.36954  0.56696  Biso   1.000  He
  Ar4      1.0000 0.24972  0.50677  0.63002  Biso   1.000  Ar
  Ne5      1.0000 0.74995  0.98992  0.12834  Biso   1.000  Ne
  He9      1.0000 0.75039  0.80586  0.21652  Biso   1.000  He
  He10     1.0000 0.74991  0.18083  0.01609  Biso   1.000  He
  Ar5      1.0000 0.74981  0.99328  0.13003  Biso   1.000  Ar
  Ne6      1.0000 0.74991  0.01008  0.62834  Biso   1.000  Ne
  He11     1.0000 0.75033  0.20053  0.71977  Biso   1.000  He
  He12     1.0000 0.74985  0.86953  0.56695  Biso   1.000  He
  Ar6      1.0000 0.74974  0.00675  0.63002  Biso   1.000  Ar
  Ne7      1.0000 0.24992  0.01008  0.87166  Biso   1.000  Ne
  He13     1.0000 0.24995  0.86907  0.93527  Biso   1.000  He
  He14     1.0000 0.24950  0.19340  0.78386  Biso   1.000  He
  Ar7      1.0000 0.25002  0.02520  0.86069  Biso   1.000  Ar
  Ne8      1.0000 0.74992  0.51007  0.87166  Biso   1.000  Ne
  He15     1.0000 0.74995  0.36908  0.93526  Biso   1.000  He
  He16     1.0000 0.74949  0.69337  0.78386  Biso   1.000  He
  Ar8      1.0000 0.75010  0.50674  0.86997  Biso   1.000  Ar
