data_image0
_cell_length_a       25.786
_cell_length_b       19.862
_cell_length_c       29.24
_cell_angle_alpha    90
_cell_angle_beta     94.96
_cell_angle_gamma    90

_symmetry_space_group_name_H-M    "P 1"
_symmetry_int_tables_number       1

loop_
  _symmetry_equiv_pos_as_xyz
  'x, y, z'

loop_
  _atom_site_label
  _atom_site_occupancy
  _atom_site_fract_x
  _atom_site_fract_y
  _atom_site_fract_z
  _atom_site_thermal_displace_type
  _atom_site_B_iso_or_equiv
  _atom_site_type_symbol
  C1       1.0000 0.21571  0.64279  0.11641  Biso   1.000  C
  C2       1.0000 0.22491  0.58312  0.14099  Biso   1.000  C
  C3       1.0000 0.25181  0.69510  0.12111  Biso   1.000  C
  H1       1.0000 0.18061  0.64842  0.09378  Biso   1.000  H
  C4       1.0000 0.27031  0.57592  0.17020  Biso   1.000  C
  H2       1.0000 0.19702  0.54259  0.13742  Biso   1.000  H
  C5       1.0000 0.29721  0.68790  0.15029  Biso   1.000  C
  H3       1.0000 0.24459  0.74132  0.10209  Biso   1.000  H
  C6       1.0000 0.30641  0.62829  0.17490  Biso   1.000  C
  H4       1.0000 0.27742  0.52970  0.18929  Biso   1.000  H
  H5       1.0000 0.32510  0.72848  0.15389  Biso   1.000  H
  C7       1.0000 0.35691  0.62179  0.20741  Biso   1.000  C
  C8       1.0000 0.34493  0.63820  0.25650  Biso   1.000  C
  H6       1.0000 0.37132  0.57079  0.20600  Biso   1.000  H
  H7       1.0000 0.38603  0.65618  0.19670  Biso   1.000  H
  C9       1.0000 0.39421  0.62698  0.29001  Biso   1.000  C
  H8       1.0000 0.31392  0.60588  0.26611  Biso   1.000  H
  H9       1.0000 0.33272  0.69011  0.25811  Biso   1.000  H
  C10      1.0000 0.40864  0.55412  0.29831  Biso   1.000  C
  C11      1.0000 0.38573  0.65628  0.33800  Biso   1.000  C
  H10      1.0000 0.42503  0.65190  0.27370  Biso   1.000  H
  C12      1.0000 0.37162  0.50262  0.29649  Biso   1.000  C
  C13      1.0000 0.46102  0.53942  0.30930  Biso   1.000  C
  C14      1.0000 0.33743  0.65769  0.35602  Biso   1.000  C
  C15      1.0000 0.42964  0.68110  0.36381  Biso   1.000  C
  C16      1.0000 0.38723  0.43641  0.30580  Biso   1.000  C
  H11      1.0000 0.33104  0.51400  0.28801  Biso   1.000  H
  C17      1.0000 0.47662  0.47311  0.31850  Biso   1.000  C
  O1       1.0000 0.49974  0.58650  0.30981  Biso   1.000  O
  C18      1.0000 0.33291  0.68402  0.39972  Biso   1.000  C
  H12      1.0000 0.30344  0.63851  0.33601  Biso   1.000  H
  O2       1.0000 0.47853  0.68452  0.34860  Biso   1.000  O
  C19      1.0000 0.42524  0.70738  0.40751  Biso   1.000  C
  C20      1.0000 0.34832  0.37891  0.30411  Biso   1.000  C
  C21      1.0000 0.43973  0.42161  0.31682  Biso   1.000  C
  O3       1.0000 0.52653  0.45902  0.33789  Biso   1.000  O
  C22      1.0000 0.50743  0.62662  0.35029  Biso   1.000  C
  C23      1.0000 0.28083  0.68050  0.42220  Biso   1.000  C
  C24      1.0000 0.37682  0.70879  0.42550  Biso   1.000  C
  O4       1.0000 0.46765  0.72379  0.43659  Biso   1.000  O
  C25      1.0000 0.30061  0.38979  0.26879  Biso   1.000  C
  C26      1.0000 0.33333  0.36789  0.35410  Biso   1.000  C
  H13      1.0000 0.36593  0.33411  0.29152  Biso   1.000  H
  O5       1.0000 0.45771  0.35601  0.32299  Biso   1.000  O
  C27      1.0000 0.56432  0.44759  0.30559  Biso   1.000  C
  H14      1.0000 0.49654  0.59672  0.37881  Biso   1.000  H
  H15      1.0000 0.54814  0.63971  0.35571  Biso   1.000  H
  C28      1.0000 0.27833  0.61681  0.44891  Biso   1.000  C
  H16      1.0000 0.27972  0.72238  0.44572  Biso   1.000  H
  C29      1.0000 0.23251  0.68900  0.38509  Biso   1.000  C
  O6       1.0000 0.37344  0.73850  0.46889  Biso   1.000  O
  C30      1.0000 0.48532  0.79030  0.43250  Biso   1.000  C
  C31      1.0000 0.26891  0.32288  0.26151  Biso   1.000  C
  H17      1.0000 0.31373  0.40630  0.23649  Biso   1.000  H
  H18      1.0000 0.27574  0.42780  0.28170  Biso   1.000  H
  C32      1.0000 0.29012  0.39981  0.36989  Biso   1.000  C
  C33      1.0000 0.36602  0.32922  0.38420  Biso   1.000  C
  C34      1.0000 0.45252  0.32811  0.36769  Biso   1.000  C
  C35      1.0000 0.61212  0.44301  0.33429  Biso   1.000  C
  H19      1.0000 0.56504  0.48792  0.28091  Biso   1.000  H
  H20      1.0000 0.55672  0.40051  0.28781  Biso   1.000  H
  C36      1.0000 0.25575  0.55790  0.43030  Biso   1.000  C
  C37      1.0000 0.30322  0.61630  0.49319  Biso   1.000  C
  H21      1.0000 0.23822  0.73391  0.36539  Biso   1.000  H
  H22      1.0000 0.22992  0.64581  0.36261  Biso   1.000  H
  C38      1.0000 0.18123  0.69510  0.40789  Biso   1.000  C
  C39      1.0000 0.37436  0.69182  0.50442  Biso   1.000  C
  C40      1.0000 0.53285  0.79252  0.46680  Biso   1.000  C
  H23      1.0000 0.45652  0.82640  0.44139  Biso   1.000  H
  H24      1.0000 0.49571  0.80022  0.39811  Biso   1.000  H
  H25      1.0000 0.29333  0.28542  0.24751  Biso   1.000  H
  H26      1.0000 0.25693  0.30541  0.29399  Biso   1.000  H
  C41      1.0000 0.22053  0.33390  0.22811  Biso   1.000  C
  H27      1.0000 0.26474  0.42982  0.34672  Biso   1.000  H
  C42      1.0000 0.27965  0.39311  0.41572  Biso   1.000  C
  C43      1.0000 0.35565  0.32248  0.42989  Biso   1.000  C
  O7       1.0000 0.40652  0.29222  0.36961  Biso   1.000  O
  H28      1.0000 0.48494  0.29468  0.37641  Biso   1.000  H
  H29      1.0000 0.45352  0.36890  0.39220  Biso   1.000  H
  C44      1.0000 0.64914  0.44019  0.36179  Biso   1.000  C
  C45      1.0000 0.25793  0.49869  0.45602  Biso   1.000  C
  H30      1.0000 0.23641  0.55830  0.39601  Biso   1.000  H
  C46      1.0000 0.30543  0.55709  0.51891  Biso   1.000  C
  O8       1.0000 0.32344  0.67400  0.51551  Biso   1.000  O
  H31      1.0000 0.17735  0.65270  0.43041  Biso   1.000  H
  H32      1.0000 0.18205  0.74111  0.42770  Biso   1.000  H
  C47      1.0000 0.13562  0.69600  0.37349  Biso   1.000  C
  H33      1.0000 0.39504  0.71332  0.53459  Biso   1.000  H
  H34      1.0000 0.39413  0.64691  0.49450  Biso   1.000  H
  C48      1.0000 0.56996  0.78698  0.49361  Biso   1.000  C
  C49      1.0000 0.17041  0.32842  0.24212  Biso   1.000  C
  C50      1.0000 0.22762  0.34679  0.18211  Biso   1.000  C
  C51      1.0000 0.23573  0.43158  0.43652  Biso   1.000  C
  C52      1.0000 0.31245  0.35440  0.44572  Biso   1.000  C
  O9       1.0000 0.39494  0.29478  0.46079  Biso   1.000  O
  C53      1.0000 0.69002  0.43868  0.40061  Biso   1.000  C
  C54      1.0000 0.28282  0.49829  0.50030  Biso   1.000  C
  O10      1.0000 0.33635  0.55302  0.55979  Biso   1.000  O
  C55      1.0000 0.10893  0.63649  0.36189  Biso   1.000  C
  C56      1.0000 0.11993  0.75622  0.35190  Biso   1.000  C
  C57      1.0000 0.61404  0.77590  0.52910  Biso   1.000  C
  C58      1.0000 0.12730  0.33592  0.21030  Biso   1.000  C
  H35      1.0000 0.16494  0.31840  0.27772  Biso   1.000  H
  C59      1.0000 0.18451  0.35429  0.15019  Biso   1.000  C
  H36      1.0000 0.26642  0.35102  0.17120  Biso   1.000  H
  H37      1.0000 0.22233  0.40092  0.46360  Biso   1.000  H
  C60      1.0000 0.18765  0.44432  0.40411  Biso   1.000  C
  O11      1.0000 0.30285  0.34362  0.49141  Biso   1.000  O
  C61      1.0000 0.38604  0.22410  0.47092  Biso   1.000  C
  O12      1.0000 0.66373  0.44698  0.44019  Biso   1.000  O
  H38      1.0000 0.71877  0.47790  0.39721  Biso   1.000  H
  H39      1.0000 0.70912  0.39019  0.40161  Biso   1.000  H
  O13      1.0000 0.28144  0.44250  0.52859  Biso   1.000  O
  C62      1.0000 0.31007  0.56132  0.59941  Biso   1.000  C
  C63      1.0000 0.06663  0.63710  0.32880  Biso   1.000  C
  H40      1.0000 0.12104  0.58992  0.37861  Biso   1.000  H
  C64      1.0000 0.07764  0.75692  0.31881  Biso   1.000  C
  H41      1.0000 0.14052  0.80239  0.36089  Biso   1.000  H
  O14      1.0000 0.60514  0.70522  0.53919  Biso   1.000  O
  H42      1.0000 0.65155  0.78401  0.51619  Biso   1.000  H
  H43      1.0000 0.61055  0.80742  0.55880  Biso   1.000  H
  C65      1.0000 0.13443  0.34881  0.16430  Biso   1.000  C
  H44      1.0000 0.08851  0.33169  0.22121  Biso   1.000  H
  H45      1.0000 0.19002  0.36431  0.11469  Biso   1.000  H
  H46      1.0000 0.16064  0.47669  0.41980  Biso   1.000  H
  H47      1.0000 0.19924  0.46788  0.37329  Biso   1.000  H
  C66      1.0000 0.16203  0.37700  0.39199  Biso   1.000  C
  C67      1.0000 0.31814  0.39472  0.52309  Biso   1.000  C
  C68      1.0000 0.43013  0.21302  0.50641  Biso   1.000  C
  H48      1.0000 0.34852  0.21599  0.48379  Biso   1.000  H
  H49      1.0000 0.38953  0.19258  0.44119  Biso   1.000  H
  C69      1.0000 0.69465  0.44291  0.48111  Biso   1.000  C
  C70      1.0000 0.35094  0.55981  0.63820  Biso   1.000  C
  H50      1.0000 0.28131  0.52210  0.60280  Biso   1.000  H
  H51      1.0000 0.29097  0.60981  0.59841  Biso   1.000  H
  C71      1.0000 0.05102  0.69731  0.30720  Biso   1.000  C
  H52      1.0000 0.04601  0.59098  0.31980  Biso   1.000  H
  H53      1.0000 0.06553  0.80349  0.30209  Biso   1.000  H
  C72      1.0000 0.64443  0.67752  0.57009  Biso   1.000  C
  H54      1.0000 0.10102  0.35460  0.13961  Biso   1.000  H
  H55      1.0000 0.15452  0.35148  0.42340  Biso   1.000  H
  H56      1.0000 0.18805  0.34699  0.37339  Biso   1.000  H
  C73      1.0000 0.11102  0.38732  0.36141  Biso   1.000  C
  H57      1.0000 0.32855  0.37161  0.55612  Biso   1.000  H
  H58      1.0000 0.35185  0.41939  0.51139  Biso   1.000  H
  C74      1.0000 0.46723  0.20748  0.53319  Biso   1.000  C
  C75      1.0000 0.71722  0.50171  0.49972  Biso   1.000  C
  C76      1.0000 0.69682  0.38370  0.50679  Biso   1.000  C
  C77      1.0000 0.38796  0.55699  0.66569  Biso   1.000  C
  H59      1.0000 0.01821  0.69781  0.28149  Biso   1.000  H
  C78      1.0000 0.68763  0.64560  0.55430  Biso   1.000  C
  C79      1.0000 0.63406  0.67078  0.61581  Biso   1.000  C
  C80      1.0000 0.08392  0.32791  0.34850  Biso   1.000  C
  C81      1.0000 0.08864  0.44940  0.34792  Biso   1.000  C
  C82      1.0000 0.51477  0.20970  0.56752  Biso   1.000  C
  C83      1.0000 0.74216  0.50131  0.54400  Biso   1.000  C
  O15      1.0000 0.71864  0.55750  0.47140  Biso   1.000  O
  O16      1.0000 0.67664  0.32600  0.48451  Biso   1.000  O
  C84      1.0000 0.72176  0.38319  0.55111  Biso   1.000  C
  C85      1.0000 0.43576  0.55241  0.69439  Biso   1.000  C
  C86      1.0000 0.72044  0.60689  0.58430  Biso   1.000  C
  O17      1.0000 0.69723  0.65638  0.50861  Biso   1.000  O
  C87      1.0000 0.66676  0.63211  0.64592  Biso   1.000  C
  O18      1.0000 0.59357  0.70778  0.63040  Biso   1.000  O
  C88      1.0000 0.03634  0.33048  0.32200  Biso   1.000  C
  H60      1.0000 0.10062  0.27978  0.35901  Biso   1.000  H
  C89      1.0000 0.04101  0.45202  0.32142  Biso   1.000  C
  H61      1.0000 0.10893  0.49542  0.35791  Biso   1.000  H
  O19      1.0000 0.53243  0.27621  0.56340  Biso   1.000  O
  H62      1.0000 0.54356  0.17360  0.55859  Biso   1.000  H
  H63      1.0000 0.50433  0.19978  0.60191  Biso   1.000  H
  C90      1.0000 0.74433  0.44210  0.56971  Biso   1.000  C
  C91      1.0000 0.76435  0.56842  0.56350  Biso   1.000  C
  C92      1.0000 0.68194  0.60528  0.47689  Biso   1.000  C
  C93      1.0000 0.62572  0.30818  0.49560  Biso   1.000  C
  C94      1.0000 0.71926  0.31950  0.57781  Biso   1.000  C
  O20      1.0000 0.47354  0.54098  0.66209  Biso   1.000  O
  H64      1.0000 0.43504  0.51208  0.71911  Biso   1.000  H
  H65      1.0000 0.44336  0.59949  0.71221  Biso   1.000  H
  C95      1.0000 0.70996  0.60019  0.63010  Biso   1.000  C
  C96      1.0000 0.65176  0.62109  0.69590  Biso   1.000  C
  C97      1.0000 0.54756  0.67189  0.63229  Biso   1.000  C
  C98      1.0000 0.01481  0.39261  0.30851  Biso   1.000  C
  H66      1.0000 0.01612  0.28451  0.31201  Biso   1.000  H
  H67      1.0000 0.02443  0.50010  0.31091  Biso   1.000  H
  C99      1.0000 0.57484  0.29262  0.59251  Biso   1.000  C
  H68      1.0000 0.76363  0.44170  0.60401  Biso   1.000  H
  H69      1.0000 0.77775  0.59908  0.53641  Biso   1.000  H
  C100     1.0000 0.81244  0.55568  0.59590  Biso   1.000  C
  H70      1.0000 0.67154  0.62839  0.44390  Biso   1.000  H
  H71      1.0000 0.64823  0.58061  0.48859  Biso   1.000  H
  O21      1.0000 0.62664  0.26150  0.53109  Biso   1.000  O
  H72      1.0000 0.60504  0.28668  0.46539  Biso   1.000  H
  H73      1.0000 0.60595  0.35309  0.50552  Biso   1.000  H
  C101     1.0000 0.66713  0.31598  0.60030  Biso   1.000  C
  H74      1.0000 0.72033  0.27762  0.55430  Biso   1.000  H
  C102     1.0000 0.76753  0.31100  0.61489  Biso   1.000  C
  C103     1.0000 0.52346  0.52689  0.68152  Biso   1.000  C
  H75      1.0000 0.73535  0.57018  0.65330  Biso   1.000  H
  C104     1.0000 0.61285  0.56359  0.69422  Biso   1.000  C
  H76      1.0000 0.63415  0.66589  0.70850  Biso   1.000  H
  C105     1.0000 0.69947  0.61021  0.73119  Biso   1.000  C
  O22      1.0000 0.54237  0.64399  0.67699  Biso   1.000  O
  H77      1.0000 0.51515  0.70532  0.62361  Biso   1.000  H
  H78      1.0000 0.54656  0.63110  0.60782  Biso   1.000  H
  H79      1.0000 0.97794  0.39472  0.28801  Biso   1.000  H
  C106     1.0000 0.57044  0.31890  0.63621  Biso   1.000  C
  C107     1.0000 0.62326  0.29121  0.57452  Biso   1.000  C
  H80      1.0000 0.83944  0.52331  0.58022  Biso   1.000  H
  H81      1.0000 0.80084  0.53212  0.62670  Biso   1.000  H
  C108     1.0000 0.83805  0.62300  0.60799  Biso   1.000  C
  C109     1.0000 0.66265  0.34231  0.64400  Biso   1.000  C
  H82      1.0000 0.76186  0.26609  0.63459  Biso   1.000  H
  H83      1.0000 0.77016  0.35419  0.63741  Biso   1.000  H
  C110     1.0000 0.81885  0.30490  0.59209  Biso   1.000  C
  C111     1.0000 0.53906  0.46058  0.69072  Biso   1.000  C
  C112     1.0000 0.56035  0.57839  0.68320  Biso   1.000  C
  C113     1.0000 0.62846  0.49738  0.70349  Biso   1.000  C
  H84      1.0000 0.68635  0.59370  0.76350  Biso   1.000  H
  H85      1.0000 0.72435  0.57220  0.71832  Biso   1.000  H
  C114     1.0000 0.73117  0.67712  0.73850  Biso   1.000  C
  C115     1.0000 0.61435  0.34372  0.66202  Biso   1.000  C
  O23      1.0000 0.52156  0.31548  0.65141  Biso   1.000  O
  H86      1.0000 0.84556  0.64852  0.57661  Biso   1.000  H
  H87      1.0000 0.81203  0.65301  0.62659  Biso   1.000  H
  C116     1.0000 0.88907  0.61268  0.63861  Biso   1.000  C
  H88      1.0000 0.69664  0.36149  0.66401  Biso   1.000  H
  H89      1.0000 0.82273  0.34730  0.56961  Biso   1.000  H
  H90      1.0000 0.81803  0.25889  0.57229  Biso   1.000  H
  C117     1.0000 0.86445  0.30400  0.62649  Biso   1.000  C
  C118     1.0000 0.59144  0.44588  0.70170  Biso   1.000  C
  O24      1.0000 0.50035  0.41350  0.69020  Biso   1.000  O
  H91      1.0000 0.66905  0.48600  0.71200  Biso   1.000  H
  H92      1.0000 0.70676  0.71458  0.75251  Biso   1.000  H
  H93      1.0000 0.74315  0.69459  0.70600  Biso   1.000  H
  C119     1.0000 0.77955  0.66610  0.77191  Biso   1.000  C
  C120     1.0000 0.60587  0.37302  0.71001  Biso   1.000  C
  C121     1.0000 0.49265  0.37338  0.64970  Biso   1.000  C
  C122     1.0000 0.91616  0.67209  0.65152  Biso   1.000  C
  C123     1.0000 0.91145  0.55060  0.65210  Biso   1.000  C
  C124     1.0000 0.89115  0.36351  0.63809  Biso   1.000  C
  C125     1.0000 0.88015  0.24378  0.64812  Biso   1.000  C
  C126     1.0000 0.82968  0.67158  0.75790  Biso   1.000  C
  C127     1.0000 0.77246  0.65321  0.81791  Biso   1.000  C
  C128     1.0000 0.65515  0.36180  0.74352  Biso   1.000  C
  H94      1.0000 0.57505  0.34810  0.72632  Biso   1.000  H
  H95      1.0000 0.50355  0.40328  0.62120  Biso   1.000  H
  H96      1.0000 0.45195  0.36029  0.64431  Biso   1.000  H
  C129     1.0000 0.96374  0.66952  0.67802  Biso   1.000  C
  H97      1.0000 0.89946  0.72022  0.64101  Biso   1.000  H
  C130     1.0000 0.95907  0.54798  0.67860  Biso   1.000  C
  H98      1.0000 0.89115  0.50458  0.64211  Biso   1.000  H
  C131     1.0000 0.93345  0.36290  0.67122  Biso   1.000  C
  H99      1.0000 0.87904  0.41008  0.62141  Biso   1.000  H
  C132     1.0000 0.92244  0.24308  0.68121  Biso   1.000  C
  H100     1.0000 0.85956  0.19761  0.63909  Biso   1.000  H
  C133     1.0000 0.87278  0.66408  0.78969  Biso   1.000  C
  H101     1.0000 0.83514  0.68160  0.72230  Biso   1.000  H
  C134     1.0000 0.81557  0.64571  0.84980  Biso   1.000  C
  H102     1.0000 0.73367  0.64898  0.82882  Biso   1.000  H
  C135     1.0000 0.64317  0.37821  0.79261  Biso   1.000  C
  H103     1.0000 0.68616  0.39412  0.73390  Biso   1.000  H
  H104     1.0000 0.66736  0.30989  0.74190  Biso   1.000  H
  C136     1.0000 0.98527  0.60739  0.69151  Biso   1.000  C
  H105     1.0000 0.98396  0.71549  0.68801  Biso   1.000  H
  H106     1.0000 0.97565  0.49990  0.68911  Biso   1.000  H
  C137     1.0000 0.94906  0.30269  0.69281  Biso   1.000  C
  H107     1.0000 0.95407  0.40902  0.68021  Biso   1.000  H
  H108     1.0000 0.93455  0.19651  0.69789  Biso   1.000  H
  C138     1.0000 0.86566  0.65119  0.83572  Biso   1.000  C
  H109     1.0000 0.91158  0.66831  0.77881  Biso   1.000  H
  H110     1.0000 0.81006  0.63569  0.88529  Biso   1.000  H
  C139     1.0000 0.69367  0.37171  0.82511  Biso   1.000  C
  H111     1.0000 0.62877  0.42921  0.79401  Biso   1.000  H
  H112     1.0000 0.61405  0.34382  0.80332  Biso   1.000  H
  H113     1.0000 0.02214  0.60528  0.71200  Biso   1.000  H
  H114     1.0000 0.98187  0.30219  0.71849  Biso   1.000  H
  H115     1.0000 0.89906  0.64540  0.86040  Biso   1.000  H
  C140     1.0000 0.72977  0.42408  0.82982  Biso   1.000  C
  C141     1.0000 0.70287  0.31210  0.84969  Biso   1.000  C
  C142     1.0000 0.77517  0.41688  0.85900  Biso   1.000  C
  H116     1.0000 0.72266  0.47030  0.81070  Biso   1.000  H
  C143     1.0000 0.74827  0.30490  0.87891  Biso   1.000  C
  H117     1.0000 0.67498  0.27152  0.84609  Biso   1.000  H
  C144     1.0000 0.78437  0.35721  0.88361  Biso   1.000  C
  H118     1.0000 0.80306  0.45741  0.86260  Biso   1.000  H
  H119     1.0000 0.75549  0.25868  0.89789  Biso   1.000  H
  H120     1.0000 0.81947  0.35158  0.90620  Biso   1.000  H
  C145     1.0000 0.13402  0.82922  0.11579  Biso   1.000  C
  C146     1.0000 0.04752  0.82811  0.13230  Biso   1.000  C
  C147     1.0000 0.16671  0.86789  0.14590  Biso   1.000  C
  C148     1.0000 0.14439  0.82248  0.07010  Biso   1.000  C
  O25      1.0000 0.09352  0.79222  0.13038  Biso   1.000  O
  O26      1.0000 0.04233  0.85601  0.17700  Biso   1.000  O
  H121     1.0000 0.04652  0.86890  0.10779  Biso   1.000  H
  H122     1.0000 0.01510  0.79468  0.12358  Biso   1.000  H
  C149     1.0000 0.15172  0.87891  0.19588  Biso   1.000  C
  C150     1.0000 0.20992  0.89981  0.13010  Biso   1.000  C
  C151     1.0000 0.18759  0.85440  0.05431  Biso   1.000  C
  C152     1.0000 0.18759  0.85440  0.05427  Biso   1.000  C
  O27      1.0000 0.10510  0.79478  0.03920  Biso   1.000  O
  C153     1.0000 0.06031  0.92161  0.18318  Biso   1.000  C
  C154     1.0000 0.19943  0.88979  0.23120  Biso   1.000  C
  C155     1.0000 0.11281  0.93641  0.19420  Biso   1.000  C
  H123     1.0000 0.13411  0.83411  0.20848  Biso   1.000  H
  H124     1.0000 0.23531  0.92982  0.15331  Biso   1.000  H
  H125     1.0000 0.23530  0.92982  0.15328  Biso   1.000  H
  C156     1.0000 0.22039  0.89311  0.08428  Biso   1.000  C
  O28      1.0000 0.19719  0.84362  0.00862  Biso   1.000  O
  O29      1.0000 0.19719  0.84362  0.00858  Biso   1.000  O
  C157     1.0000 0.11400  0.72410  0.02911  Biso   1.000  C
  C158     1.0000 0.11400  0.72410  0.02908  Biso   1.000  C
  C159     1.0000 0.02342  0.97311  0.18149  Biso   1.000  C
  C160     1.0000 0.23113  0.82288  0.23851  Biso   1.000  C
  C161     1.0000 0.23113  0.82288  0.23848  Biso   1.000  C
  H126     1.0000 0.18631  0.90630  0.26350  Biso   1.000  H
  H127     1.0000 0.22430  0.92780  0.21829  Biso   1.000  H
  C162     1.0000 0.12842  0.00262  0.20350  Biso   1.000  C
  C163     1.0000 0.26431  0.93158  0.06351  Biso   1.000  C
  C164     1.0000 0.26431  0.93158  0.06347  Biso   1.000  C
  C165     1.0000 0.18198  0.89472  0.97690  Biso   1.000  C
  H128     1.0000 0.15151  0.71599  0.01620  Biso   1.000  H
  H129     1.0000 0.11051  0.69258  0.05880  Biso   1.000  H
  C166     1.0000 0.06999  0.71302  0.99361  Biso   1.000  C
  C167     1.0000 0.06999  0.71302  0.99358  Biso   1.000  C
  O30      1.0000 0.97350  0.95902  0.16210  Biso   1.000  O
  C168     1.0000 0.03902  0.03942  0.19069  Biso   1.000  C
  C169     1.0000 0.27951  0.83390  0.27191  Biso   1.000  C
  C170     1.0000 0.27951  0.83390  0.27188  Biso   1.000  C
  H130     1.0000 0.20671  0.78542  0.25248  Biso   1.000  H
  H131     1.0000 0.24311  0.80541  0.20600  Biso   1.000  H
  H132     1.0000 0.16901  0.01400  0.21201  Biso   1.000  H
  C171     1.0000 0.09140  0.05412  0.20171  Biso   1.000  C
  H133     1.0000 0.16900  0.01400  0.21198  Biso   1.000  H
  C172     1.0000 0.09140  0.05412  0.20168  Biso   1.000  C
  H134     1.0000 0.27771  0.90092  0.03639  Biso   1.000  H
  C173     1.0000 0.24212  0.99869  0.04401  Biso   1.000  C
  C174     1.0000 0.24211  0.99869  0.04397  Biso   1.000  C
  C175     1.0000 0.31239  0.94432  0.09588  Biso   1.000  C
  O31      1.0000 0.21867  0.94250  0.97140  Biso   1.000  O
  H135     1.0000 0.17157  0.87161  0.94391  Biso   1.000  H
  H136     1.0000 0.14827  0.91939  0.98860  Biso   1.000  H
  H137     1.0000 0.17157  0.87161  0.94387  Biso   1.000  H
  C176     1.0000 0.03289  0.70748  0.96680  Biso   1.000  C
  C177     1.0000 0.93572  0.94759  0.19440  Biso   1.000  C
  O32      1.0000 0.00031  0.08650  0.19021  Biso   1.000  O
  O33      1.0000 0.00030  0.08650  0.19018  Biso   1.000  O
  C178     1.0000 0.32964  0.82842  0.25791  Biso   1.000  C
  C179     1.0000 0.32963  0.82842  0.25787  Biso   1.000  C
  C180     1.0000 0.27242  0.84679  0.31788  Biso   1.000  C
  C181     1.0000 0.10583  0.12698  0.20999  Biso   1.000  C
  C182     1.0000 0.21726  0.99829  0.99969  Biso   1.000  C
  C183     1.0000 0.24429  0.05790  0.06969  Biso   1.000  C
  H138     1.0000 0.33940  0.97669  0.08019  Biso   1.000  H
  H139     1.0000 0.30080  0.96788  0.12671  Biso   1.000  H
  C184     1.0000 0.33801  0.87700  0.10800  Biso   1.000  C
  C185     1.0000 0.98536  0.70970  0.93251  Biso   1.000  C
  C186     1.0000 0.98535  0.70970  0.93248  Biso   1.000  C
  C187     1.0000 0.88792  0.94301  0.16570  Biso   1.000  C
  H140     1.0000 0.93500  0.98792  0.21912  Biso   1.000  H
  H141     1.0000 0.94332  0.90051  0.21222  Biso   1.000  H
  H142     1.0000 0.93500  0.98792  0.21908  Biso   1.000  H
  H143     1.0000 0.94332  0.90051  0.21218  Biso   1.000  H
  C188     1.0000 0.99261  0.12662  0.14971  Biso   1.000  C
  C189     1.0000 0.37274  0.83592  0.28970  Biso   1.000  C
  H144     1.0000 0.33511  0.81840  0.22231  Biso   1.000  H
  H145     1.0000 0.33510  0.81840  0.22228  Biso   1.000  H
  C190     1.0000 0.31553  0.85429  0.34981  Biso   1.000  C
  H146     1.0000 0.23362  0.85102  0.32880  Biso   1.000  H
  C191     1.0000 0.11431  0.15628  0.16200  Biso   1.000  C
  C192     1.0000 0.15511  0.13820  0.24349  Biso   1.000  C
  H147     1.0000 0.07501  0.15190  0.22629  Biso   1.000  H
  C193     1.0000 0.19469  0.05709  0.98109  Biso   1.000  C
  C194     1.0000 0.22172  0.11681  0.05111  Biso   1.000  C
  C195     1.0000 0.22171  0.11681  0.05108  Biso   1.000  C
  H148     1.0000 0.26359  0.05830  0.10398  Biso   1.000  H
  H149     1.0000 0.34552  0.85148  0.07659  Biso   1.000  H
  H150     1.0000 0.31199  0.84699  0.12660  Biso   1.000  H
  C196     1.0000 0.38903  0.88732  0.13862  Biso   1.000  C
  C197     1.0000 0.38902  0.88732  0.13858  Biso   1.000  C
  O34      1.0000 0.96768  0.77621  0.93660  Biso   1.000  O
  H151     1.0000 0.95656  0.67360  0.94140  Biso   1.000  H
  H152     1.0000 0.99579  0.69978  0.89811  Biso   1.000  H
  H153     1.0000 0.99575  0.69978  0.89808  Biso   1.000  H
  C198     1.0000 0.85090  0.94019  0.13821  Biso   1.000  C
  H154     1.0000 0.95190  0.13971  0.14428  Biso   1.000  H
  H155     1.0000 0.00351  0.09672  0.12121  Biso   1.000  H
  O35      1.0000 0.02151  0.18452  0.15139  Biso   1.000  O
  H156     1.0000 0.00350  0.09672  0.12118  Biso   1.000  H
  C199     1.0000 0.36561  0.84881  0.33570  Biso   1.000  C
  H157     1.0000 0.41153  0.83169  0.27878  Biso   1.000  H
  H158     1.0000 0.31002  0.86431  0.38530  Biso   1.000  H
  C200     1.0000 0.16261  0.15769  0.14401  Biso   1.000  C
  C201     1.0000 0.16261  0.15769  0.14397  Biso   1.000  C
  C202     1.0000 0.07040  0.18110  0.13618  Biso   1.000  C
  H159     1.0000 0.18612  0.10588  0.23391  Biso   1.000  H
  C203     1.0000 0.14313  0.12179  0.29258  Biso   1.000  C
  H160     1.0000 0.18612  0.10588  0.23388  Biso   1.000  H
  H161     1.0000 0.16732  0.19011  0.24188  Biso   1.000  H
  O36      1.0000 0.16376  0.05302  0.94020  Biso   1.000  O
  C204     1.0000 0.19678  0.11630  0.00680  Biso   1.000  C
  C205     1.0000 0.21921  0.18050  0.07779  Biso   1.000  C
  C206     1.0000 0.41612  0.82791  0.15149  Biso   1.000  C
  C207     1.0000 0.41141  0.94940  0.15211  Biso   1.000  C
  C208     1.0000 0.41140  0.94940  0.15207  Biso   1.000  C
  C209     1.0000 0.92527  0.79262  0.90749  Biso   1.000  C
  C210     1.0000 0.81002  0.93868  0.09938  Biso   1.000  C
  H162     1.0000 0.39902  0.85460  0.36041  Biso   1.000  H
  H163     1.0000 0.39902  0.85460  0.36038  Biso   1.000  H
  C211     1.0000 0.16709  0.18402  0.10031  Biso   1.000  C
  H164     1.0000 0.19660  0.13851  0.16399  Biso   1.000  H
  C212     1.0000 0.16709  0.18402  0.10027  Biso   1.000  C
  C213     1.0000 0.07480  0.20738  0.09248  Biso   1.000  C
  C214     1.0000 0.19363  0.12829  0.32509  Biso   1.000  C
  H165     1.0000 0.12872  0.07079  0.29399  Biso   1.000  H
  H166     1.0000 0.11401  0.15618  0.30329  Biso   1.000  H
  C215     1.0000 0.19005  0.06132  0.90059  Biso   1.000  C
  O37      1.0000 0.17668  0.17400  0.98448  Biso   1.000  O
  H167     1.0000 0.22029  0.22238  0.05431  Biso   1.000  H
  H168     1.0000 0.22028  0.22238  0.05427  Biso   1.000  H
  C216     1.0000 0.26749  0.18900  0.11490  Biso   1.000  C
  C217     1.0000 0.46370  0.83048  0.17799  Biso   1.000  C
  H169     1.0000 0.39942  0.77978  0.14099  Biso   1.000  H
  H170     1.0000 0.39111  0.99542  0.14208  Biso   1.000  H
  C218     1.0000 0.45903  0.95202  0.17861  Biso   1.000  C
  C219     1.0000 0.45903  0.95202  0.17858  Biso   1.000  C
  C220     1.0000 0.92968  0.81890  0.86379  Biso   1.000  C
  C221     1.0000 0.87686  0.79121  0.92547  Biso   1.000  C
  O38      1.0000 0.83631  0.94698  0.05980  Biso   1.000  O
  H171     1.0000 0.79092  0.89019  0.09838  Biso   1.000  H
  H172     1.0000 0.78127  0.97790  0.10278  Biso   1.000  H
  C222     1.0000 0.12322  0.20879  0.07449  Biso   1.000  C
  O39      1.0000 0.03239  0.22379  0.06340  Biso   1.000  O
  C223     1.0000 0.22973  0.07592  0.32979  Biso   1.000  C
  C224     1.0000 0.20283  0.18790  0.34970  Biso   1.000  C
  C225     1.0000 0.14917  0.05981  0.86179  Biso   1.000  C
  H173     1.0000 0.21880  0.02210  0.89719  Biso   1.000  H
  H174     1.0000 0.20915  0.10981  0.90158  Biso   1.000  H
  C226     1.0000 0.12576  0.19182  0.99561  Biso   1.000  C
  H175     1.0000 0.26182  0.23391  0.13460  Biso   1.000  H
  H176     1.0000 0.27012  0.14581  0.13742  Biso   1.000  H
  C227     1.0000 0.31881  0.19510  0.09210  Biso   1.000  C
  H177     1.0000 0.27012  0.14581  0.13738  Biso   1.000  H
  H178     1.0000 0.48392  0.78451  0.18802  Biso   1.000  H
  C228     1.0000 0.48523  0.89261  0.19148  Biso   1.000  C
  H179     1.0000 0.48392  0.78451  0.18798  Biso   1.000  H
  H180     1.0000 0.47561  0.00010  0.18911  Biso   1.000  H
  H181     1.0000 0.47561  0.00010  0.18908  Biso   1.000  H
  C229     1.0000 0.88577  0.84372  0.83800  Biso   1.000  C
  O40      1.0000 0.97856  0.81548  0.84858  Biso   1.000  O
  C230     1.0000 0.83299  0.81598  0.89969  Biso   1.000  C
  O41      1.0000 0.87347  0.76150  0.96890  Biso   1.000  O
  C231     1.0000 0.83295  0.81598  0.89969  Biso   1.000  C
  C232     1.0000 0.80539  0.94291  0.01891  Biso   1.000  C
  C233     1.0000 0.80539  0.94291  0.01888  Biso   1.000  C
  O42      1.0000 0.12660  0.23850  0.03110  Biso   1.000  O
  C234     1.0000 0.01472  0.29030  0.06749  Biso   1.000  C
  C235     1.0000 0.01468  0.29030  0.06749  Biso   1.000  C
  C236     1.0000 0.27513  0.08312  0.35901  Biso   1.000  C
  H182     1.0000 0.22262  0.02970  0.31071  Biso   1.000  H
  H183     1.0000 0.17494  0.22848  0.34610  Biso   1.000  H
  C237     1.0000 0.24823  0.19510  0.37888  Biso   1.000  C
  C238     1.0000 0.11216  0.05699  0.83430  Biso   1.000  C
  H184     1.0000 0.10508  0.21332  0.96540  Biso   1.000  H
  H185     1.0000 0.10591  0.14691  0.00549  Biso   1.000  H
  H186     1.0000 0.32269  0.15270  0.06958  Biso   1.000  H
  H187     1.0000 0.31799  0.24111  0.07230  Biso   1.000  H
  C239     1.0000 0.36441  0.19600  0.12650  Biso   1.000  C
  H188     1.0000 0.52210  0.89472  0.21201  Biso   1.000  H
  H189     1.0000 0.52210  0.89472  0.21198  Biso   1.000  H
  C240     1.0000 0.89425  0.87302  0.79001  Biso   1.000  C
  C241     1.0000 0.83747  0.84231  0.85599  Biso   1.000  C
  C242     1.0000 0.89425  0.87302  0.78998  Biso   1.000  C
  C243     1.0000 0.00747  0.87338  0.85029  Biso   1.000  C
  C244     1.0000 0.78086  0.81950  0.92218  Biso   1.000  C
  C245     1.0000 0.87432  0.80818  0.00439  Biso   1.000  C
  C246     1.0000 0.80326  0.88370  0.99320  Biso   1.000  C
  C247     1.0000 0.78282  0.00171  0.00031  Biso   1.000  C
  C248     1.0000 0.78278  0.00171  0.00027  Biso   1.000  C
  C249     1.0000 0.96719  0.29252  0.03320  Biso   1.000  C
  H190     1.0000 0.04352  0.32640  0.05860  Biso   1.000  H
  H191     1.0000 0.00429  0.30022  0.10189  Biso   1.000  H
  C250     1.0000 0.28433  0.14279  0.38362  Biso   1.000  C
  H192     1.0000 0.30302  0.04259  0.36261  Biso   1.000  H
  C251     1.0000 0.28433  0.14279  0.38358  Biso   1.000  C
  H193     1.0000 0.30302  0.04259  0.36258  Biso   1.000  H
  H194     1.0000 0.25545  0.24132  0.39790  Biso   1.000  H
  C252     1.0000 0.06436  0.05241  0.80560  Biso   1.000  C
  C253     1.0000 0.39111  0.13649  0.13810  Biso   1.000  C
  C254     1.0000 0.38011  0.25622  0.14809  Biso   1.000  C
  C255     1.0000 0.84497  0.86180  0.75651  Biso   1.000  C
  H195     1.0000 0.92507  0.84810  0.77371  Biso   1.000  H
  C256     1.0000 0.90867  0.94588  0.79829  Biso   1.000  C
  C257     1.0000 0.84497  0.86180  0.75648  Biso   1.000  C
  H196     1.0000 0.92507  0.84810  0.77367  Biso   1.000  H
  H197     1.0000 0.80347  0.86149  0.83598  Biso   1.000  H
  O43      1.0000 0.99977  0.91350  0.80979  Biso   1.000  O
  H198     1.0000 0.99657  0.90328  0.87879  Biso   1.000  H
  H199     1.0000 0.04817  0.86029  0.85568  Biso   1.000  H
  C258     1.0000 0.77836  0.88319  0.94889  Biso   1.000  C
  C259     1.0000 0.73255  0.81100  0.88510  Biso   1.000  C
  H200     1.0000 0.77975  0.77762  0.94569  Biso   1.000  H
  O44      1.0000 0.82340  0.82600  0.01552  Biso   1.000  O
  O45      1.0000 0.82340  0.82600  0.01548  Biso   1.000  O
  H201     1.0000 0.89417  0.85309  0.99451  Biso   1.000  H
  H202     1.0000 0.89417  0.85309  0.99447  Biso   1.000  H
  H203     1.0000 0.89500  0.78668  0.03460  Biso   1.000  H
  C260     1.0000 0.75796  0.00131  0.95599  Biso   1.000  C
  O46      1.0000 0.78140  0.05750  0.02860  Biso   1.000  O
  C261     1.0000 0.93008  0.28698  0.00639  Biso   1.000  C
  H204     1.0000 0.31943  0.14842  0.40621  Biso   1.000  H
  O47      1.0000 0.02657  0.04098  0.83790  Biso   1.000  O
  H205     1.0000 0.06508  0.01208  0.78088  Biso   1.000  H
  H206     1.0000 0.05676  0.09949  0.78778  Biso   1.000  H
  H207     1.0000 0.06504  0.01208  0.78088  Biso   1.000  H
  C262     1.0000 0.43341  0.13710  0.17120  Biso   1.000  C
  H208     1.0000 0.37900  0.08992  0.12138  Biso   1.000  H
  C263     1.0000 0.42240  0.25692  0.18118  Biso   1.000  C
  H209     1.0000 0.35952  0.30239  0.13910  Biso   1.000  H
  C264     1.0000 0.85695  0.87821  0.70739  Biso   1.000  C
  H210     1.0000 0.81396  0.89412  0.76609  Biso   1.000  H
  H211     1.0000 0.83276  0.80989  0.75809  Biso   1.000  H
  C265     1.0000 0.96106  0.96058  0.80931  Biso   1.000  C
  C266     1.0000 0.96106  0.96058  0.80927  Biso   1.000  C
  C267     1.0000 0.87166  0.99738  0.79650  Biso   1.000  C
  C268     1.0000 0.75579  0.94210  0.93031  Biso   1.000  C
  C269     1.0000 0.75575  0.94210  0.93028  Biso   1.000  C
  H212     1.0000 0.73826  0.76609  0.86540  Biso   1.000  H
  H213     1.0000 0.72995  0.85419  0.86258  Biso   1.000  H
  C270     1.0000 0.68127  0.80490  0.90790  Biso   1.000  C
  C271     1.0000 0.73577  0.06842  0.93649  Biso   1.000  C
  C272     1.0000 0.81810  0.10528  0.02310  Biso   1.000  C
  C273     1.0000 0.88608  0.27590  0.97089  Biso   1.000  C
  C274     1.0000 0.97666  0.02689  0.81851  Biso   1.000  C
  C275     1.0000 0.97666  0.02689  0.81847  Biso   1.000  C
  C276     1.0000 0.44902  0.19731  0.19279  Biso   1.000  C
  H214     1.0000 0.45403  0.09098  0.18019  Biso   1.000  H
  H215     1.0000 0.43451  0.30349  0.19790  Biso   1.000  H
  H216     1.0000 0.88607  0.84382  0.69671  Biso   1.000  H
  C277     1.0000 0.80645  0.87171  0.67488  Biso   1.000  C
  H217     1.0000 0.87135  0.92921  0.70598  Biso   1.000  H
  H218     1.0000 0.88603  0.84382  0.69668  Biso   1.000  H
  C278     1.0000 0.88727  0.06359  0.80580  Biso   1.000  C
  H219     1.0000 0.83107  0.98600  0.78799  Biso   1.000  H
  H220     1.0000 0.73649  0.94170  0.89599  Biso   1.000  H
  H221     1.0000 0.73645  0.94170  0.89599  Biso   1.000  H
  H222     1.0000 0.68208  0.75889  0.92770  Biso   1.000  H
  C279     1.0000 0.63566  0.80400  0.87350  Biso   1.000  C
  H223     1.0000 0.67738  0.84730  0.93038  Biso   1.000  H
  C280     1.0000 0.68768  0.05568  0.90409  Biso   1.000  C
  C281     1.0000 0.77968  0.10689  0.91569  Biso   1.000  C
  H224     1.0000 0.72237  0.09908  0.96358  Biso   1.000  H
  O48      1.0000 0.80289  0.15638  0.99138  Biso   1.000  O
  H225     1.0000 0.82850  0.12839  0.05609  Biso   1.000  H
  H226     1.0000 0.85181  0.08061  0.01140  Biso   1.000  H
  O49      1.0000 0.89498  0.20522  0.96080  Biso   1.000  O
  H227     1.0000 0.84856  0.28401  0.98380  Biso   1.000  H
  H228     1.0000 0.88957  0.30742  0.94120  Biso   1.000  H
  C282     1.0000 0.93977  0.07839  0.81679  Biso   1.000  C
  H229     1.0000 0.48183  0.19781  0.21850  Biso   1.000  H
  C283     1.0000 0.77035  0.92408  0.67021  Biso   1.000  C
  C284     1.0000 0.79725  0.81210  0.65030  Biso   1.000  C
  C285     1.0000 0.77035  0.92408  0.67017  Biso   1.000  C
  C286     1.0000 0.84836  0.12109  0.80409  Biso   1.000  C
  C287     1.0000 0.60897  0.86351  0.86190  Biso   1.000  C
  C288     1.0000 0.61997  0.74378  0.85191  Biso   1.000  C
  C289     1.0000 0.61997  0.74378  0.85187  Biso   1.000  C
  H230     1.0000 0.66068  0.02331  0.91981  Biso   1.000  H
  H231     1.0000 0.69928  0.03212  0.87329  Biso   1.000  H
  C290     1.0000 0.66206  0.12300  0.89200  Biso   1.000  C
  H232     1.0000 0.66068  0.02331  0.91977  Biso   1.000  H
  C291     1.0000 0.81248  0.14560  0.94569  Biso   1.000  C
  C292     1.0000 0.79016  0.10019  0.86990  Biso   1.000  C
  C293     1.0000 0.85569  0.17752  0.92990  Biso   1.000  C
  O50      1.0000 0.95775  0.14399  0.82300  Biso   1.000  O
  C294     1.0000 0.72494  0.91688  0.64099  Biso   1.000  C
  H233     1.0000 0.77746  0.97030  0.68929  Biso   1.000  H
  C295     1.0000 0.75184  0.80490  0.62108  Biso   1.000  C
  H234     1.0000 0.82514  0.77152  0.65390  Biso   1.000  H
  C296     1.0000 0.83337  0.13211  0.85410  Biso   1.000  C
  H235     1.0000 0.86597  0.16589  0.79149  Biso   1.000  H
  C297     1.0000 0.80065  0.11021  0.76880  Biso   1.000  C
  C298     1.0000 0.56667  0.86290  0.82880  Biso   1.000  C
  H236     1.0000 0.62108  0.91008  0.87858  Biso   1.000  H
  C299     1.0000 0.57768  0.74308  0.81882  Biso   1.000  C
  H237     1.0000 0.64055  0.69761  0.86090  Biso   1.000  H
  C300     1.0000 0.57767  0.74308  0.81878  Biso   1.000  C
  H238     1.0000 0.65456  0.14852  0.92341  Biso   1.000  H
  H239     1.0000 0.68808  0.15301  0.87340  Biso   1.000  H
  C301     1.0000 0.61105  0.11268  0.86138  Biso   1.000  C
  H240     1.0000 0.65455  0.14852  0.92338  Biso   1.000  H
  H241     1.0000 0.76477  0.07018  0.84669  Biso   1.000  H
  C302     1.0000 0.86606  0.17078  0.88418  Biso   1.000  C
  C303     1.0000 0.95255  0.17189  0.86770  Biso   1.000  C
  C304     1.0000 0.71574  0.85721  0.61638  Biso   1.000  C
  H242     1.0000 0.69706  0.95741  0.63739  Biso   1.000  H
  H243     1.0000 0.74463  0.75868  0.60210  Biso   1.000  H
  H244     1.0000 0.81377  0.09370  0.73650  Biso   1.000  H
  H245     1.0000 0.77577  0.07220  0.78171  Biso   1.000  H
  C305     1.0000 0.76895  0.17712  0.76149  Biso   1.000  C
  H246     1.0000 0.77577  0.07220  0.78167  Biso   1.000  H
  C306     1.0000 0.55106  0.80269  0.80721  Biso   1.000  C
  H247     1.0000 0.54605  0.90902  0.81981  Biso   1.000  H
  C307     1.0000 0.55106  0.80269  0.80718  Biso   1.000  C
  H248     1.0000 0.54605  0.90902  0.81978  Biso   1.000  H
  H249     1.0000 0.56557  0.69651  0.80210  Biso   1.000  H
  C308     1.0000 0.58867  0.05060  0.84789  Biso   1.000  C
  C309     1.0000 0.58396  0.17209  0.84847  Biso   1.000  C
  O51      1.0000 0.90655  0.20778  0.86959  Biso   1.000  O
  H250     1.0000 0.98497  0.20532  0.87638  Biso   1.000  H
  H251     1.0000 0.95356  0.13110  0.89217  Biso   1.000  H
  H252     1.0000 0.68064  0.85158  0.59379  Biso   1.000  H
  H253     1.0000 0.75697  0.19459  0.79400  Biso   1.000  H
  C310     1.0000 0.72057  0.16610  0.72809  Biso   1.000  C
  H254     1.0000 0.79336  0.21458  0.74748  Biso   1.000  H
  H255     1.0000 0.51825  0.80219  0.78150  Biso   1.000  H
  C311     1.0000 0.53638  0.16952  0.82201  Biso   1.000  C
  C312     1.0000 0.53637  0.16952  0.82197  Biso   1.000  C
  H256     1.0000 0.60065  0.22022  0.85898  Biso   1.000  H
  C313     1.0000 0.54105  0.04798  0.82139  Biso   1.000  C
  H257     1.0000 0.60896  0.00458  0.85788  Biso   1.000  H
  C314     1.0000 0.67044  0.17158  0.74209  Biso   1.000  C
  C315     1.0000 0.72765  0.15321  0.68209  Biso   1.000  C
  C316     1.0000 0.51485  0.10739  0.80848  Biso   1.000  C
  H258     1.0000 0.51616  0.21549  0.81198  Biso   1.000  H
  H259     1.0000 0.52447  0.99990  0.81089  Biso   1.000  H
  C317     1.0000 0.62734  0.16408  0.71030  Biso   1.000  C
  H260     1.0000 0.66497  0.18160  0.77769  Biso   1.000  H
  C318     1.0000 0.68454  0.14571  0.65019  Biso   1.000  C
  H261     1.0000 0.76645  0.14898  0.67120  Biso   1.000  H
  H262     1.0000 0.47797  0.10528  0.78799  Biso   1.000  H
  C319     1.0000 0.63447  0.15119  0.66430  Biso   1.000  C
  H263     1.0000 0.58854  0.16831  0.72119  Biso   1.000  H
  H264     1.0000 0.69006  0.13569  0.61470  Biso   1.000  H
  H265     1.0000 0.60106  0.14540  0.63959  Biso   1.000  H
  O52      1.0000 0.28140  0.55750  0.02860  Biso   1.000  O
  C320     1.0000 0.28282  0.50171  0.00031  Biso   1.000  C
  C321     1.0000 0.28278  0.50171  0.00027  Biso   1.000  C
  C322     1.0000 0.31810  0.60528  0.02310  Biso   1.000  C
  C323     1.0000 0.30539  0.44291  0.01891  Biso   1.000  C
  C324     1.0000 0.30539  0.44291  0.01888  Biso   1.000  C
  C325     1.0000 0.25796  0.50131  0.95599  Biso   1.000  C
  H266     1.0000 0.32850  0.62839  0.05609  Biso   1.000  H
  H267     1.0000 0.35181  0.58061  0.01140  Biso   1.000  H
  O53      1.0000 0.30289  0.65638  0.99138  Biso   1.000  O
  O54      1.0000 0.33631  0.44698  0.05980  Biso   1.000  O
  C326     1.0000 0.30326  0.38370  0.99320  Biso   1.000  C
  C327     1.0000 0.25579  0.44210  0.93031  Biso   1.000  C
  C328     1.0000 0.25575  0.44210  0.93028  Biso   1.000  C
  C329     1.0000 0.23577  0.56842  0.93649  Biso   1.000  C
  C330     1.0000 0.31248  0.64560  0.94569  Biso   1.000  C
  C331     1.0000 0.31002  0.43868  0.09938  Biso   1.000  C
  C332     1.0000 0.27836  0.38319  0.94889  Biso   1.000  C
  O55      1.0000 0.32340  0.32600  0.01552  Biso   1.000  O
  O56      1.0000 0.32340  0.32600  0.01548  Biso   1.000  O
  H268     1.0000 0.23645  0.44170  0.89599  Biso   1.000  H
  C333     1.0000 0.18768  0.55568  0.90409  Biso   1.000  C
  C334     1.0000 0.27968  0.60689  0.91569  Biso   1.000  C
  H269     1.0000 0.22237  0.59908  0.96358  Biso   1.000  H
  C335     1.0000 0.35569  0.67752  0.92990  Biso   1.000  C
  C336     1.0000 0.35090  0.44019  0.13821  Biso   1.000  C
  H270     1.0000 0.29092  0.39019  0.09838  Biso   1.000  H
  H271     1.0000 0.28127  0.47790  0.10278  Biso   1.000  H
  C337     1.0000 0.28086  0.31950  0.92218  Biso   1.000  C
  C338     1.0000 0.37432  0.30818  0.00439  Biso   1.000  C
  H272     1.0000 0.16068  0.52331  0.91981  Biso   1.000  H
  H273     1.0000 0.19928  0.53212  0.87329  Biso   1.000  H
  C339     1.0000 0.16206  0.62300  0.89200  Biso   1.000  C
  H274     1.0000 0.16068  0.52331  0.91977  Biso   1.000  H
  C340     1.0000 0.29016  0.60019  0.86990  Biso   1.000  C
  O57      1.0000 0.39498  0.70522  0.96080  Biso   1.000  O
  C341     1.0000 0.36606  0.67078  0.88418  Biso   1.000  C
  C342     1.0000 0.38792  0.44301  0.16570  Biso   1.000  C
  H275     1.0000 0.27979  0.27762  0.94569  Biso   1.000  H
  C343     1.0000 0.23255  0.31100  0.88510  Biso   1.000  C
  C344     1.0000 0.33295  0.31598  0.89969  Biso   1.000  C
  H276     1.0000 0.27975  0.27762  0.94569  Biso   1.000  H
  H277     1.0000 0.39500  0.28668  0.03460  Biso   1.000  H
  O58      1.0000 0.37347  0.26150  0.96890  Biso   1.000  O
  H278     1.0000 0.39417  0.35309  0.99451  Biso   1.000  H
  H279     1.0000 0.39417  0.35309  0.99447  Biso   1.000  H
  H280     1.0000 0.15456  0.64852  0.92341  Biso   1.000  H
  H281     1.0000 0.18808  0.65301  0.87340  Biso   1.000  H
  C345     1.0000 0.11105  0.61268  0.86138  Biso   1.000  C
  H282     1.0000 0.15455  0.64852  0.92338  Biso   1.000  H
  C346     1.0000 0.33337  0.63211  0.85410  Biso   1.000  C
  H283     1.0000 0.26477  0.57018  0.84669  Biso   1.000  H
  O59      1.0000 0.40655  0.70778  0.86959  Biso   1.000  O
  C347     1.0000 0.38608  0.77590  0.97089  Biso   1.000  C
  C348     1.0000 0.43572  0.44759  0.19440  Biso   1.000  C
  C349     1.0000 0.33747  0.34231  0.85599  Biso   1.000  C
  C350     1.0000 0.37686  0.29121  0.92547  Biso   1.000  C
  H284     1.0000 0.23826  0.26609  0.86540  Biso   1.000  H
  H285     1.0000 0.22995  0.35419  0.86258  Biso   1.000  H
  C351     1.0000 0.18127  0.30490  0.90790  Biso   1.000  C
  C352     1.0000 0.08867  0.55060  0.84789  Biso   1.000  C
  C353     1.0000 0.08396  0.67209  0.84847  Biso   1.000  C
  C354     1.0000 0.34836  0.62109  0.80409  Biso   1.000  C
  C355     1.0000 0.45255  0.67189  0.86770  Biso   1.000  C
  C356     1.0000 0.43008  0.78698  0.00639  Biso   1.000  C
  H286     1.0000 0.34856  0.78401  0.98380  Biso   1.000  H
  H287     1.0000 0.38957  0.80742  0.94120  Biso   1.000  H
  O60      1.0000 0.47350  0.45902  0.16210  Biso   1.000  O
  H288     1.0000 0.43500  0.48792  0.21912  Biso   1.000  H
  H289     1.0000 0.44332  0.40051  0.21222  Biso   1.000  H
  H290     1.0000 0.43500  0.48792  0.21908  Biso   1.000  H
  H291     1.0000 0.44332  0.40051  0.21218  Biso   1.000  H
  C357     1.0000 0.38577  0.34372  0.83800  Biso   1.000  C
  H292     1.0000 0.30347  0.36149  0.83598  Biso   1.000  H
  C358     1.0000 0.42527  0.29262  0.90749  Biso   1.000  C
  H293     1.0000 0.18208  0.25889  0.92770  Biso   1.000  H
  C359     1.0000 0.13566  0.30400  0.87350  Biso   1.000  C
  H294     1.0000 0.17738  0.34730  0.93038  Biso   1.000  H
  C360     1.0000 0.03638  0.66952  0.82201  Biso   1.000  C
  C361     1.0000 0.03637  0.66952  0.82197  Biso   1.000  C
  H295     1.0000 0.10065  0.72022  0.85898  Biso   1.000  H
  C362     1.0000 0.04105  0.54798  0.82139  Biso   1.000  C
  H296     1.0000 0.10896  0.50458  0.85788  Biso   1.000  H
  C363     1.0000 0.38727  0.56359  0.80580  Biso   1.000  C
  H297     1.0000 0.36597  0.66589  0.79149  Biso   1.000  H
  C364     1.0000 0.30065  0.61021  0.76880  Biso   1.000  C
  H298     1.0000 0.48497  0.70532  0.87638  Biso   1.000  H
  O61      1.0000 0.45775  0.64399  0.82300  Biso   1.000  O
  H299     1.0000 0.45356  0.63110  0.89217  Biso   1.000  H
  C365     1.0000 0.46719  0.79252  0.03320  Biso   1.000  C
  C366     1.0000 0.52342  0.47311  0.18149  Biso   1.000  C
  C367     1.0000 0.39425  0.37302  0.79001  Biso   1.000  C
  C368     1.0000 0.42968  0.31890  0.86379  Biso   1.000  C
  C369     1.0000 0.39425  0.37302  0.78998  Biso   1.000  C
  O62      1.0000 0.46768  0.27621  0.93660  Biso   1.000  O
  C370     1.0000 0.10897  0.36351  0.86190  Biso   1.000  C
  C371     1.0000 0.11997  0.24378  0.85191  Biso   1.000  C
  C372     1.0000 0.11997  0.24378  0.85187  Biso   1.000  C
  C373     1.0000 0.01485  0.60739  0.80848  Biso   1.000  C
  H300     1.0000 0.01616  0.71549  0.81198  Biso   1.000  H
  H301     1.0000 0.02447  0.49990  0.81089  Biso   1.000  H
  C374     1.0000 0.37166  0.49738  0.79650  Biso   1.000  C
  C375     1.0000 0.43977  0.57839  0.81679  Biso   1.000  C
  H302     1.0000 0.31377  0.59370  0.73650  Biso   1.000  H
  H303     1.0000 0.27577  0.57220  0.78171  Biso   1.000  H
  C376     1.0000 0.26895  0.67712  0.76149  Biso   1.000  C
  H304     1.0000 0.27577  0.57220  0.78167  Biso   1.000  H
  C377     1.0000 0.51468  0.79030  0.06749  Biso   1.000  C
  C378     1.0000 0.53902  0.53942  0.19069  Biso   1.000  C
  C379     1.0000 0.56031  0.42161  0.18318  Biso   1.000  C
  C380     1.0000 0.34497  0.36180  0.75651  Biso   1.000  C
  H305     1.0000 0.42507  0.34810  0.77371  Biso   1.000  H
  C381     1.0000 0.40867  0.44588  0.79829  Biso   1.000  C
  C382     1.0000 0.34497  0.36180  0.75648  Biso   1.000  C
  H306     1.0000 0.42507  0.34810  0.77367  Biso   1.000  H
  O63      1.0000 0.47856  0.31548  0.84858  Biso   1.000  O
  C383     1.0000 0.48536  0.20970  0.93251  Biso   1.000  C
  C384     1.0000 0.48535  0.20970  0.93248  Biso   1.000  C
  C385     1.0000 0.06667  0.36290  0.82880  Biso   1.000  C
  H307     1.0000 0.12108  0.41008  0.87858  Biso   1.000  H
  C386     1.0000 0.07768  0.24308  0.81882  Biso   1.000  C
  H308     1.0000 0.14055  0.19761  0.86090  Biso   1.000  H
  C387     1.0000 0.07767  0.24308  0.81878  Biso   1.000  C
  H309     1.0000 0.97797  0.60528  0.78799  Biso   1.000  H
  H310     1.0000 0.33107  0.48600  0.78799  Biso   1.000  H
  C388     1.0000 0.47666  0.52689  0.81851  Biso   1.000  C
  C389     1.0000 0.47666  0.52689  0.81847  Biso   1.000  C
  H311     1.0000 0.25697  0.69459  0.79400  Biso   1.000  H
  C390     1.0000 0.22057  0.66610  0.72809  Biso   1.000  C
  H312     1.0000 0.29336  0.71458  0.74748  Biso   1.000  H
  O64      1.0000 0.53239  0.72379  0.06340  Biso   1.000  O
  H313     1.0000 0.54352  0.82640  0.05860  Biso   1.000  H
  H314     1.0000 0.50429  0.80022  0.10189  Biso   1.000  H
  O65      1.0000 0.50031  0.58650  0.19021  Biso   1.000  O
  C391     1.0000 0.59140  0.55412  0.20171  Biso   1.000  C
  O66      1.0000 0.50030  0.58650  0.19018  Biso   1.000  O
  C392     1.0000 0.59140  0.55412  0.20168  Biso   1.000  C
  O67      1.0000 0.54233  0.35601  0.17700  Biso   1.000  O
  C393     1.0000 0.61281  0.43641  0.19420  Biso   1.000  C
  C394     1.0000 0.35695  0.37821  0.70739  Biso   1.000  C
  H315     1.0000 0.31396  0.39412  0.76609  Biso   1.000  H
  H316     1.0000 0.33276  0.30989  0.75809  Biso   1.000  H
  C395     1.0000 0.46106  0.46058  0.80931  Biso   1.000  C
  C396     1.0000 0.46106  0.46058  0.80927  Biso   1.000  C
  C397     1.0000 0.50747  0.37338  0.85029  Biso   1.000  C
  H317     1.0000 0.45656  0.17360  0.94140  Biso   1.000  H
  H318     1.0000 0.49579  0.19978  0.89811  Biso   1.000  H
  C398     1.0000 0.53289  0.20748  0.96680  Biso   1.000  C
  H319     1.0000 0.49575  0.19978  0.89808  Biso   1.000  H
  C399     1.0000 0.05106  0.30269  0.80721  Biso   1.000  C
  H320     1.0000 0.04605  0.40902  0.81981  Biso   1.000  H
  C400     1.0000 0.05106  0.30269  0.80718  Biso   1.000  C
  H321     1.0000 0.04605  0.40902  0.81978  Biso   1.000  H
  H322     1.0000 0.06557  0.19651  0.80210  Biso   1.000  H
  O68      1.0000 0.52657  0.54098  0.83790  Biso   1.000  O
  C401     1.0000 0.17044  0.67158  0.74209  Biso   1.000  C
  C402     1.0000 0.22765  0.65321  0.68209  Biso   1.000  C
  C403     1.0000 0.57480  0.70738  0.09248  Biso   1.000  C
  C404     1.0000 0.49261  0.62662  0.14971  Biso   1.000  C
  C405     1.0000 0.62842  0.50262  0.20350  Biso   1.000  C
  C406     1.0000 0.60583  0.62698  0.20999  Biso   1.000  C
  C407     1.0000 0.54752  0.32811  0.13230  Biso   1.000  C
  C408     1.0000 0.65172  0.37891  0.19588  Biso   1.000  C
  H323     1.0000 0.38607  0.34382  0.69671  Biso   1.000  H
  C409     1.0000 0.30645  0.37171  0.67488  Biso   1.000  C
  H324     1.0000 0.37135  0.42921  0.70598  Biso   1.000  H
  H325     1.0000 0.38603  0.34382  0.69668  Biso   1.000  H
  O69      1.0000 0.49977  0.41350  0.80979  Biso   1.000  O
  H326     1.0000 0.49657  0.40328  0.87879  Biso   1.000  H
  H327     1.0000 0.54817  0.36029  0.85568  Biso   1.000  H
  C410     1.0000 0.56999  0.21302  0.99361  Biso   1.000  C
  C411     1.0000 0.56999  0.21302  0.99358  Biso   1.000  C
  H328     1.0000 0.01825  0.30219  0.78150  Biso   1.000  H
  C412     1.0000 0.56436  0.55241  0.80560  Biso   1.000  C
  C413     1.0000 0.12734  0.66408  0.71030  Biso   1.000  C
  H329     1.0000 0.16497  0.68160  0.77769  Biso   1.000  H
  C414     1.0000 0.18454  0.64571  0.65019  Biso   1.000  C
  H330     1.0000 0.26645  0.64898  0.67120  Biso   1.000  H
  C415     1.0000 0.57040  0.68110  0.13618  Biso   1.000  C
  C416     1.0000 0.62322  0.70879  0.07449  Biso   1.000  C
  O70      1.0000 0.52151  0.68452  0.15139  Biso   1.000  O
  H331     1.0000 0.50351  0.59672  0.12121  Biso   1.000  H
  H332     1.0000 0.50350  0.59672  0.12118  Biso   1.000  H
  H333     1.0000 0.45190  0.63971  0.14428  Biso   1.000  H
  H334     1.0000 0.66901  0.51400  0.21201  Biso   1.000  H
  H335     1.0000 0.66900  0.51400  0.21198  Biso   1.000  H
  C417     1.0000 0.61431  0.65628  0.16200  Biso   1.000  C
  C418     1.0000 0.65511  0.63820  0.24349  Biso   1.000  C
  H336     1.0000 0.57501  0.65190  0.22629  Biso   1.000  H
  H337     1.0000 0.54652  0.36890  0.10779  Biso   1.000  H
  O71      1.0000 0.59352  0.29222  0.13038  Biso   1.000  O
  H338     1.0000 0.51510  0.29468  0.12358  Biso   1.000  H
  C419     1.0000 0.66671  0.36789  0.14590  Biso   1.000  C
  C420     1.0000 0.69943  0.38979  0.23120  Biso   1.000  C
  H339     1.0000 0.63411  0.33411  0.20848  Biso   1.000  H
  C421     1.0000 0.27035  0.42408  0.67021  Biso   1.000  C
  C422     1.0000 0.29725  0.31210  0.65030  Biso   1.000  C
  C423     1.0000 0.27035  0.42408  0.67017  Biso   1.000  C
  C424     1.0000 0.61400  0.22410  0.02911  Biso   1.000  C
  C425     1.0000 0.61400  0.22410  0.02908  Biso   1.000  C
  C426     1.0000 0.61216  0.55699  0.83430  Biso   1.000  C
  H340     1.0000 0.55676  0.59949  0.78778  Biso   1.000  H
  H341     1.0000 0.56504  0.51208  0.78088  Biso   1.000  H
  C427     1.0000 0.13447  0.65119  0.66430  Biso   1.000  C
  H342     1.0000 0.08854  0.66831  0.72119  Biso   1.000  H
  H343     1.0000 0.19006  0.63569  0.61470  Biso   1.000  H
  C428     1.0000 0.66709  0.68402  0.10031  Biso   1.000  C
  C429     1.0000 0.66709  0.68402  0.10027  Biso   1.000  C
  O72      1.0000 0.62660  0.73850  0.03110  Biso   1.000  O
  C430     1.0000 0.66261  0.65769  0.14401  Biso   1.000  C
  C431     1.0000 0.66261  0.65769  0.14397  Biso   1.000  C
  H344     1.0000 0.68612  0.60588  0.23391  Biso   1.000  H
  C432     1.0000 0.64313  0.62179  0.29258  Biso   1.000  C
  H345     1.0000 0.68612  0.60588  0.23388  Biso   1.000  H
  H346     1.0000 0.66732  0.69011  0.24188  Biso   1.000  H
  C433     1.0000 0.63402  0.32922  0.11579  Biso   1.000  C
  C434     1.0000 0.70992  0.39981  0.13010  Biso   1.000  C
  H347     1.0000 0.68631  0.40630  0.26350  Biso   1.000  H
  H348     1.0000 0.72430  0.42780  0.21829  Biso   1.000  H
  C435     1.0000 0.73113  0.32288  0.23851  Biso   1.000  C
  C436     1.0000 0.73113  0.32288  0.23848  Biso   1.000  C
  C437     1.0000 0.22494  0.41688  0.64099  Biso   1.000  C
  H349     1.0000 0.27746  0.47030  0.68929  Biso   1.000  H
  C438     1.0000 0.25184  0.30490  0.62108  Biso   1.000  C
  H350     1.0000 0.32514  0.27152  0.65390  Biso   1.000  H
  O73      1.0000 0.60510  0.29478  0.03920  Biso   1.000  O
  H351     1.0000 0.65151  0.21599  0.01620  Biso   1.000  H
  H352     1.0000 0.61051  0.19258  0.05880  Biso   1.000  H
  C439     1.0000 0.64917  0.55981  0.86179  Biso   1.000  C
  H353     1.0000 0.10106  0.64540  0.63959  Biso   1.000  H
  C440     1.0000 0.71921  0.68050  0.07779  Biso   1.000  C
  C441     1.0000 0.62576  0.69182  0.99561  Biso   1.000  C
  H354     1.0000 0.69660  0.63851  0.16399  Biso   1.000  H
  C442     1.0000 0.69363  0.62829  0.32509  Biso   1.000  C
  H355     1.0000 0.62872  0.57079  0.29399  Biso   1.000  H
  H356     1.0000 0.61401  0.65618  0.30329  Biso   1.000  H
  C443     1.0000 0.64439  0.32248  0.07010  Biso   1.000  C
  H357     1.0000 0.73531  0.42982  0.15331  Biso   1.000  H
  H358     1.0000 0.73530  0.42982  0.15328  Biso   1.000  H
  C444     1.0000 0.72039  0.39311  0.08428  Biso   1.000  C
  H359     1.0000 0.70671  0.28542  0.25248  Biso   1.000  H
  H360     1.0000 0.74311  0.30541  0.20600  Biso   1.000  H
  C445     1.0000 0.77951  0.33390  0.27191  Biso   1.000  C
  C446     1.0000 0.77951  0.33390  0.27188  Biso   1.000  C
  C447     1.0000 0.21574  0.35721  0.61638  Biso   1.000  C
  H361     1.0000 0.19706  0.45741  0.63739  Biso   1.000  H
  H362     1.0000 0.24463  0.25868  0.60210  Biso   1.000  H
  C448     1.0000 0.69005  0.56132  0.90059  Biso   1.000  C
  C449     1.0000 0.72172  0.61681  0.05111  Biso   1.000  C
  H363     1.0000 0.72029  0.72238  0.05431  Biso   1.000  H
  C450     1.0000 0.76753  0.68900  0.11490  Biso   1.000  C
  C451     1.0000 0.72171  0.61681  0.05108  Biso   1.000  C
  H364     1.0000 0.72028  0.72238  0.05427  Biso   1.000  H
  C452     1.0000 0.76749  0.68900  0.11490  Biso   1.000  C
  H365     1.0000 0.60591  0.64691  0.00549  Biso   1.000  H
  H366     1.0000 0.60508  0.71332  0.96540  Biso   1.000  H
  O74      1.0000 0.67668  0.67400  0.98448  Biso   1.000  O
  C453     1.0000 0.72973  0.57592  0.32979  Biso   1.000  C
  C454     1.0000 0.70283  0.68790  0.34970  Biso   1.000  C
  C455     1.0000 0.68759  0.35440  0.05431  Biso   1.000  C
  C456     1.0000 0.68759  0.35440  0.05427  Biso   1.000  C
  C457     1.0000 0.76431  0.43158  0.06351  Biso   1.000  C
  C458     1.0000 0.76431  0.43158  0.06347  Biso   1.000  C
  C459     1.0000 0.82964  0.32842  0.25791  Biso   1.000  C
  C460     1.0000 0.82963  0.32842  0.25787  Biso   1.000  C
  C461     1.0000 0.77242  0.34679  0.31788  Biso   1.000  C
  H367     1.0000 0.18064  0.35158  0.59379  Biso   1.000  H
  O75      1.0000 0.66376  0.55302  0.94020  Biso   1.000  O
  H368     1.0000 0.71880  0.52210  0.89719  Biso   1.000  H
  H369     1.0000 0.70915  0.60981  0.90158  Biso   1.000  H
  C462     1.0000 0.74429  0.55790  0.06969  Biso   1.000  C
  C463     1.0000 0.69682  0.61630  0.00680  Biso   1.000  C
  C464     1.0000 0.69678  0.61630  0.00680  Biso   1.000  C
  H370     1.0000 0.76182  0.73391  0.13460  Biso   1.000  H
  C465     1.0000 0.81881  0.69510  0.09210  Biso   1.000  C
  H371     1.0000 0.77012  0.64581  0.13742  Biso   1.000  H
  H372     1.0000 0.77012  0.64581  0.13738  Biso   1.000  H
  C466     1.0000 0.77513  0.58312  0.35901  Biso   1.000  C
  H373     1.0000 0.72262  0.52970  0.31071  Biso   1.000  H
  H374     1.0000 0.67494  0.72848  0.34610  Biso   1.000  H
  C467     1.0000 0.74823  0.69510  0.37888  Biso   1.000  C
  O76      1.0000 0.69719  0.34362  0.00862  Biso   1.000  O
  O77      1.0000 0.69719  0.34362  0.00858  Biso   1.000  O
  H375     1.0000 0.77771  0.40092  0.03639  Biso   1.000  H
  C468     1.0000 0.74212  0.49869  0.04401  Biso   1.000  C
  C469     1.0000 0.74211  0.49869  0.04397  Biso   1.000  C
  C470     1.0000 0.81239  0.44432  0.09588  Biso   1.000  C
  C471     1.0000 0.87274  0.33592  0.28970  Biso   1.000  C
  H376     1.0000 0.83511  0.31840  0.22231  Biso   1.000  H
  H377     1.0000 0.83510  0.31840  0.22228  Biso   1.000  H
  C472     1.0000 0.81553  0.35429  0.34981  Biso   1.000  C
  H378     1.0000 0.73362  0.35102  0.32880  Biso   1.000  H
  C473     1.0000 0.69469  0.55709  0.98109  Biso   1.000  C
  H379     1.0000 0.76359  0.55830  0.10398  Biso   1.000  H
  H380     1.0000 0.82269  0.65270  0.06958  Biso   1.000  H
  H381     1.0000 0.81799  0.74111  0.07230  Biso   1.000  H
  C474     1.0000 0.86441  0.69600  0.12650  Biso   1.000  C
  C475     1.0000 0.78433  0.64279  0.38362  Biso   1.000  C
  H382     1.0000 0.80302  0.54259  0.36261  Biso   1.000  H
  C476     1.0000 0.78433  0.64279  0.38358  Biso   1.000  C
  H383     1.0000 0.80302  0.54259  0.36258  Biso   1.000  H
  H384     1.0000 0.75545  0.74132  0.39790  Biso   1.000  H
  C477     1.0000 0.68198  0.39472  0.97690  Biso   1.000  C
  C478     1.0000 0.71726  0.49829  0.99969  Biso   1.000  C
  H385     1.0000 0.83940  0.47669  0.08019  Biso   1.000  H
  H386     1.0000 0.80080  0.46788  0.12671  Biso   1.000  H
  C479     1.0000 0.83801  0.37700  0.10800  Biso   1.000  C
  C480     1.0000 0.86561  0.34881  0.33570  Biso   1.000  C
  H387     1.0000 0.91153  0.33169  0.27878  Biso   1.000  H
  H388     1.0000 0.81002  0.36431  0.38530  Biso   1.000  H
  C481     1.0000 0.89111  0.63649  0.13810  Biso   1.000  C
  C482     1.0000 0.88011  0.75622  0.14809  Biso   1.000  C
  H389     1.0000 0.81943  0.64842  0.40621  Biso   1.000  H
  O78      1.0000 0.71867  0.44250  0.97140  Biso   1.000  O
  H390     1.0000 0.67157  0.37161  0.94391  Biso   1.000  H
  H391     1.0000 0.64827  0.41939  0.98860  Biso   1.000  H
  H392     1.0000 0.67157  0.37161  0.94387  Biso   1.000  H
  H393     1.0000 0.84552  0.35148  0.07659  Biso   1.000  H
  H394     1.0000 0.81199  0.34699  0.12660  Biso   1.000  H
  C483     1.0000 0.88903  0.38732  0.13862  Biso   1.000  C
  C484     1.0000 0.88902  0.38732  0.13858  Biso   1.000  C
  H395     1.0000 0.89902  0.35460  0.36041  Biso   1.000  H
  H396     1.0000 0.89902  0.35460  0.36038  Biso   1.000  H
  C485     1.0000 0.93341  0.63710  0.17120  Biso   1.000  C
  H397     1.0000 0.87900  0.58992  0.12138  Biso   1.000  H
  C486     1.0000 0.92240  0.75692  0.18118  Biso   1.000  C
  H398     1.0000 0.85952  0.80239  0.13910  Biso   1.000  H
  C487     1.0000 0.91612  0.32791  0.15149  Biso   1.000  C
  C488     1.0000 0.91141  0.44940  0.15211  Biso   1.000  C
  C489     1.0000 0.91140  0.44940  0.15207  Biso   1.000  C
  C490     1.0000 0.94902  0.69731  0.19279  Biso   1.000  C
  H399     1.0000 0.95403  0.59098  0.18019  Biso   1.000  H
  H400     1.0000 0.93451  0.80349  0.19790  Biso   1.000  H
  C491     1.0000 0.96370  0.33048  0.17799  Biso   1.000  C
  H401     1.0000 0.89942  0.27978  0.14099  Biso   1.000  H
  H402     1.0000 0.89111  0.49542  0.14208  Biso   1.000  H
  C492     1.0000 0.95903  0.45202  0.17861  Biso   1.000  C
  C493     1.0000 0.95903  0.45202  0.17858  Biso   1.000  C
  H403     1.0000 0.98183  0.69781  0.21850  Biso   1.000  H
  H404     1.0000 0.98392  0.28451  0.18802  Biso   1.000  H
  C494     1.0000 0.98523  0.39261  0.19148  Biso   1.000  C
  H405     1.0000 0.98392  0.28451  0.18798  Biso   1.000  H
  H406     1.0000 0.97561  0.50010  0.18911  Biso   1.000  H
  H407     1.0000 0.97561  0.50010  0.18908  Biso   1.000  H
  H408     1.0000 0.02210  0.39472  0.21201  Biso   1.000  H
  H409     1.0000 0.02210  0.39472  0.21198  Biso   1.000  H
  C495     1.0000 0.98532  0.29030  0.43250  Biso   1.000  C
  C496     1.0000 0.03285  0.29252  0.46680  Biso   1.000  C
  O79      1.0000 0.96765  0.22379  0.43659  Biso   1.000  O
  H410     1.0000 0.95652  0.32640  0.44139  Biso   1.000  H
  H411     1.0000 0.99571  0.30022  0.39811  Biso   1.000  H
  C497     1.0000 0.06996  0.28698  0.49361  Biso   1.000  C
  C498     1.0000 0.92524  0.20738  0.40751  Biso   1.000  C
  C499     1.0000 0.11404  0.27590  0.52910  Biso   1.000  C
  C500     1.0000 0.92964  0.18110  0.36381  Biso   1.000  C
  C501     1.0000 0.87682  0.20879  0.42550  Biso   1.000  C
  O80      1.0000 0.10514  0.20522  0.53919  Biso   1.000  O
  H412     1.0000 0.15155  0.28401  0.51619  Biso   1.000  H
  H413     1.0000 0.11055  0.30742  0.55880  Biso   1.000  H
  C502     1.0000 0.88573  0.15628  0.33800  Biso   1.000  C
  O81      1.0000 0.97853  0.18452  0.34860  Biso   1.000  O
  C503     1.0000 0.83291  0.18402  0.39972  Biso   1.000  C
  O82      1.0000 0.87344  0.23850  0.46889  Biso   1.000  O
  C504     1.0000 0.14443  0.17752  0.57009  Biso   1.000  C
  C505     1.0000 0.89421  0.12698  0.29001  Biso   1.000  C
  C506     1.0000 0.83743  0.15769  0.35602  Biso   1.000  C
  C507     1.0000 0.00743  0.12662  0.35029  Biso   1.000  C
  C508     1.0000 0.78083  0.18050  0.42220  Biso   1.000  C
  C509     1.0000 0.87436  0.19182  0.50442  Biso   1.000  C
  C510     1.0000 0.18763  0.14560  0.55430  Biso   1.000  C
  C511     1.0000 0.13406  0.17078  0.61581  Biso   1.000  C
  C512     1.0000 0.90864  0.05412  0.29831  Biso   1.000  C
  C513     1.0000 0.84493  0.13820  0.25650  Biso   1.000  C
  H414     1.0000 0.92503  0.15190  0.27370  Biso   1.000  H
  H415     1.0000 0.80344  0.13851  0.33601  Biso   1.000  H
  O83      1.0000 0.99974  0.08650  0.30981  Biso   1.000  O
  H416     1.0000 0.04814  0.13971  0.35571  Biso   1.000  H
  H417     1.0000 0.99654  0.09672  0.37881  Biso   1.000  H
  C514     1.0000 0.77833  0.11681  0.44891  Biso   1.000  C
  H418     1.0000 0.77972  0.22238  0.44572  Biso   1.000  H
  C515     1.0000 0.73251  0.18900  0.38509  Biso   1.000  C
  H419     1.0000 0.89504  0.21332  0.53459  Biso   1.000  H
  H420     1.0000 0.89413  0.14691  0.49450  Biso   1.000  H
  O84      1.0000 0.82344  0.17400  0.51551  Biso   1.000  O
  O85      1.0000 0.19723  0.15638  0.50861  Biso   1.000  O
  C516     1.0000 0.22044  0.10689  0.58430  Biso   1.000  C
  C517     1.0000 0.16676  0.13211  0.64592  Biso   1.000  C
  O86      1.0000 0.09357  0.20778  0.63040  Biso   1.000  O
  C518     1.0000 0.96102  0.03942  0.30930  Biso   1.000  C
  C519     1.0000 0.87162  0.00262  0.29649  Biso   1.000  C
  C520     1.0000 0.85691  0.12179  0.20741  Biso   1.000  C
  H421     1.0000 0.81392  0.10588  0.26611  Biso   1.000  H
  H422     1.0000 0.83272  0.19011  0.25811  Biso   1.000  H
  C521     1.0000 0.75575  0.05790  0.43030  Biso   1.000  C
  C522     1.0000 0.80322  0.11630  0.49319  Biso   1.000  C
  H423     1.0000 0.73822  0.23391  0.36539  Biso   1.000  H
  H424     1.0000 0.72992  0.14581  0.36261  Biso   1.000  H
  C523     1.0000 0.68123  0.19510  0.40789  Biso   1.000  C
  C524     1.0000 0.18194  0.10528  0.47689  Biso   1.000  C
  C525     1.0000 0.26435  0.06842  0.56350  Biso   1.000  C
  C526     1.0000 0.20996  0.10019  0.63010  Biso   1.000  C
  C527     1.0000 0.15176  0.12109  0.69590  Biso   1.000  C
  C528     1.0000 0.04756  0.17189  0.63229  Biso   1.000  C
  C529     1.0000 0.97662  0.97311  0.31850  Biso   1.000  C
  C530     1.0000 0.88723  0.93641  0.30580  Biso   1.000  C
  H425     1.0000 0.83104  0.01400  0.28801  Biso   1.000  H
  C531     1.0000 0.80641  0.12829  0.17490  Biso   1.000  C
  H426     1.0000 0.87132  0.07079  0.20600  Biso   1.000  H
  H427     1.0000 0.88603  0.15618  0.19670  Biso   1.000  H
  C532     1.0000 0.75793  0.99869  0.45602  Biso   1.000  C
  H428     1.0000 0.73641  0.05830  0.39601  Biso   1.000  H
  C533     1.0000 0.80543  0.05709  0.51891  Biso   1.000  C
  H429     1.0000 0.67735  0.15270  0.43041  Biso   1.000  H
  H430     1.0000 0.68205  0.24111  0.42770  Biso   1.000  H
  C534     1.0000 0.63562  0.19600  0.37349  Biso   1.000  C
  O87      1.0000 0.21864  0.05750  0.47140  Biso   1.000  O
  H431     1.0000 0.17154  0.12839  0.44390  Biso   1.000  H
  H432     1.0000 0.14823  0.08061  0.48859  Biso   1.000  H
  C535     1.0000 0.24216  0.00131  0.54400  Biso   1.000  C
  H433     1.0000 0.27775  0.09908  0.53641  Biso   1.000  H
  C536     1.0000 0.31244  0.05568  0.59590  Biso   1.000  C
  H434     1.0000 0.23535  0.07018  0.65330  Biso   1.000  H
  C537     1.0000 0.11285  0.06359  0.69422  Biso   1.000  C
  H435     1.0000 0.13415  0.16589  0.70850  Biso   1.000  H
  C538     1.0000 0.19947  0.11021  0.73119  Biso   1.000  C
  H436     1.0000 0.01515  0.20532  0.62361  Biso   1.000  H
  H437     1.0000 0.04656  0.13110  0.60782  Biso   1.000  H
  O88      1.0000 0.04237  0.14399  0.67699  Biso   1.000  O
  O89      1.0000 0.02653  0.95902  0.33789  Biso   1.000  O
  C539     1.0000 0.93973  0.92161  0.31682  Biso   1.000  C
  C540     1.0000 0.84832  0.87891  0.30411  Biso   1.000  C
  C541     1.0000 0.77031  0.07592  0.17020  Biso   1.000  C
  C542     1.0000 0.79721  0.18790  0.15029  Biso   1.000  C
  C543     1.0000 0.73573  0.93158  0.43652  Biso   1.000  C
  C544     1.0000 0.78282  0.99829  0.50030  Biso   1.000  C
  O90      1.0000 0.83635  0.05302  0.55979  Biso   1.000  O
  C545     1.0000 0.60893  0.13649  0.36189  Biso   1.000  C
  C546     1.0000 0.61993  0.25622  0.35190  Biso   1.000  C
  C547     1.0000 0.21722  0.00171  0.49972  Biso   1.000  C
  C548     1.0000 0.24433  0.94210  0.56971  Biso   1.000  C
  H438     1.0000 0.33944  0.02331  0.58022  Biso   1.000  H
  H439     1.0000 0.30084  0.03212  0.62670  Biso   1.000  H
  C549     1.0000 0.33805  0.12300  0.60799  Biso   1.000  C
  C550     1.0000 0.06035  0.07839  0.68320  Biso   1.000  C
  C551     1.0000 0.12846  0.99738  0.70349  Biso   1.000  C
  H440     1.0000 0.18635  0.09370  0.76350  Biso   1.000  H
  H441     1.0000 0.22435  0.07220  0.71832  Biso   1.000  H
  C552     1.0000 0.23117  0.17712  0.73850  Biso   1.000  C
  C553     1.0000 0.06432  0.94759  0.30559  Biso   1.000  C
  O91      1.0000 0.95771  0.85601  0.32299  Biso   1.000  O
  C554     1.0000 0.83333  0.86789  0.35410  Biso   1.000  C
  H442     1.0000 0.86593  0.83411  0.29152  Biso   1.000  H
  C555     1.0000 0.80061  0.88979  0.26879  Biso   1.000  C
  C556     1.0000 0.72491  0.08312  0.14099  Biso   1.000  C
  H443     1.0000 0.77742  0.02970  0.18929  Biso   1.000  H
  C557     1.0000 0.75181  0.19510  0.12111  Biso   1.000  C
  H444     1.0000 0.82510  0.22848  0.15389  Biso   1.000  H
  C558     1.0000 0.77965  0.89311  0.41572  Biso   1.000  C
  H445     1.0000 0.72233  0.90092  0.46360  Biso   1.000  H
  C559     1.0000 0.68765  0.94432  0.40411  Biso   1.000  C
  O92      1.0000 0.78144  0.94250  0.52859  Biso   1.000  O
  C560     1.0000 0.81007  0.06132  0.59941  Biso   1.000  C
  C561     1.0000 0.56663  0.13710  0.32880  Biso   1.000  C
  H446     1.0000 0.62104  0.08992  0.37861  Biso   1.000  H
  C562     1.0000 0.57764  0.25692  0.31881  Biso   1.000  C
  H447     1.0000 0.64052  0.30239  0.36089  Biso   1.000  H
  C563     1.0000 0.19465  0.94291  0.48111  Biso   1.000  C
  C564     1.0000 0.22176  0.88319  0.55111  Biso   1.000  C
  H448     1.0000 0.26363  0.94170  0.60401  Biso   1.000  H
  H449     1.0000 0.34556  0.14852  0.57661  Biso   1.000  H
  H450     1.0000 0.31203  0.15301  0.62659  Biso   1.000  H
  C565     1.0000 0.38907  0.11268  0.63861  Biso   1.000  C
  C566     1.0000 0.02346  0.02689  0.68152  Biso   1.000  C
  C567     1.0000 0.09144  0.94588  0.70170  Biso   1.000  C
  H451     1.0000 0.16905  0.98600  0.71200  Biso   1.000  H
  H452     1.0000 0.20676  0.21458  0.75251  Biso   1.000  H
  H453     1.0000 0.24315  0.19459  0.70600  Biso   1.000  H
  C568     1.0000 0.27955  0.16610  0.77191  Biso   1.000  C
  C569     1.0000 0.11212  0.94301  0.33429  Biso   1.000  C
  H454     1.0000 0.06504  0.98792  0.28091  Biso   1.000  H
  H455     1.0000 0.05672  0.90051  0.28781  Biso   1.000  H
  C570     1.0000 0.95252  0.82811  0.36769  Biso   1.000  C
  C571     1.0000 0.86602  0.82922  0.38420  Biso   1.000  C
  C572     1.0000 0.79012  0.89981  0.36989  Biso   1.000  C
  H456     1.0000 0.81373  0.90630  0.23649  Biso   1.000  H
  H457     1.0000 0.77574  0.92780  0.28170  Biso   1.000  H
  C573     1.0000 0.76891  0.82288  0.26151  Biso   1.000  C
  C574     1.0000 0.71571  0.14279  0.11641  Biso   1.000  C
  H458     1.0000 0.69702  0.04259  0.13742  Biso   1.000  H
  H459     1.0000 0.74459  0.24132  0.10209  Biso   1.000  H
  C575     1.0000 0.81245  0.85440  0.44572  Biso   1.000  C
  H460     1.0000 0.66064  0.97669  0.41980  Biso   1.000  H
  H461     1.0000 0.69924  0.96788  0.37329  Biso   1.000  H
  C576     1.0000 0.66203  0.87700  0.39199  Biso   1.000  C
  C577     1.0000 0.81814  0.89472  0.52309  Biso   1.000  C
  C578     1.0000 0.85094  0.05981  0.63820  Biso   1.000  C
  H462     1.0000 0.78131  0.02210  0.60280  Biso   1.000  H
  H463     1.0000 0.79097  0.10981  0.59841  Biso   1.000  H
  C579     1.0000 0.55102  0.19731  0.30720  Biso   1.000  C
  H464     1.0000 0.54601  0.09098  0.31980  Biso   1.000  H
  H465     1.0000 0.56553  0.30349  0.30209  Biso   1.000  H
  C580     1.0000 0.19682  0.88370  0.50679  Biso   1.000  C
  O93      1.0000 0.16373  0.94698  0.44019  Biso   1.000  O
  C581     1.0000 0.21926  0.81950  0.57781  Biso   1.000  C
  C582     1.0000 0.41616  0.17209  0.65152  Biso   1.000  C
  C583     1.0000 0.41145  0.05060  0.65210  Biso   1.000  C
  O94      1.0000 0.97354  0.04098  0.66209  Biso   1.000  O
  C584     1.0000 0.03906  0.96058  0.69072  Biso   1.000  C
  C585     1.0000 0.10587  0.87302  0.71001  Biso   1.000  C
  C586     1.0000 0.32968  0.17158  0.75790  Biso   1.000  C
  C587     1.0000 0.27246  0.15321  0.81791  Biso   1.000  C
  C588     1.0000 0.14914  0.94019  0.36179  Biso   1.000  C
  O95      1.0000 0.90652  0.79222  0.36961  Biso   1.000  O
  H466     1.0000 0.98494  0.79468  0.37641  Biso   1.000  H
  H467     1.0000 0.95352  0.86890  0.39220  Biso   1.000  H
  C589     1.0000 0.85565  0.82248  0.42989  Biso   1.000  C
  H468     1.0000 0.76474  0.92982  0.34672  Biso   1.000  H
  H469     1.0000 0.79333  0.78542  0.24751  Biso   1.000  H
  H470     1.0000 0.75693  0.80541  0.29399  Biso   1.000  H
  C590     1.0000 0.72053  0.83390  0.22811  Biso   1.000  C
  H471     1.0000 0.68061  0.14842  0.09378  Biso   1.000  H
  O96      1.0000 0.80285  0.84362  0.49141  Biso   1.000  O
  H472     1.0000 0.65452  0.85148  0.42340  Biso   1.000  H
  H473     1.0000 0.68805  0.84699  0.37339  Biso   1.000  H
  C591     1.0000 0.61102  0.88732  0.36141  Biso   1.000  C
  H474     1.0000 0.82855  0.87161  0.55612  Biso   1.000  H
  H475     1.0000 0.85185  0.91939  0.51139  Biso   1.000  H
  C592     1.0000 0.88796  0.05699  0.66569  Biso   1.000  C
  H476     1.0000 0.51821  0.19781  0.28149  Biso   1.000  H
  O97      1.0000 0.17664  0.82600  0.48451  Biso   1.000  O
  C593     1.0000 0.19002  0.93868  0.40061  Biso   1.000  C
  C594     1.0000 0.16713  0.81598  0.60030  Biso   1.000  C
  H477     1.0000 0.22033  0.77762  0.55430  Biso   1.000  H
  C595     1.0000 0.26753  0.81100  0.61489  Biso   1.000  C
  C596     1.0000 0.46374  0.16952  0.67802  Biso   1.000  C
  H478     1.0000 0.39946  0.22022  0.64101  Biso   1.000  H
  C597     1.0000 0.45907  0.04798  0.67860  Biso   1.000  C
  H479     1.0000 0.39115  0.00458  0.64211  Biso   1.000  H
  C598     1.0000 0.93576  0.05241  0.69439  Biso   1.000  C
  O98      1.0000 0.00035  0.91350  0.69020  Biso   1.000  O
  C599     1.0000 0.11435  0.84372  0.66202  Biso   1.000  C
  C600     1.0000 0.15515  0.86180  0.74352  Biso   1.000  C
  H480     1.0000 0.07505  0.84810  0.72632  Biso   1.000  H
  C601     1.0000 0.37278  0.16408  0.78969  Biso   1.000  C
  H481     1.0000 0.33514  0.18160  0.72230  Biso   1.000  H
  C602     1.0000 0.31557  0.14571  0.84980  Biso   1.000  C
  H482     1.0000 0.23367  0.14898  0.82882  Biso   1.000  H
  O99      1.0000 0.89494  0.79478  0.46079  Biso   1.000  O
  C603     1.0000 0.67041  0.82842  0.24212  Biso   1.000  C
  C604     1.0000 0.72762  0.84679  0.18211  Biso   1.000  C
  C605     1.0000 0.58392  0.82791  0.34850  Biso   1.000  C
  C606     1.0000 0.58864  0.94940  0.34792  Biso   1.000  C
  C607     1.0000 0.12572  0.80818  0.49560  Biso   1.000  C
  H483     1.0000 0.21877  0.97790  0.39721  Biso   1.000  H
  H484     1.0000 0.20912  0.89019  0.40161  Biso   1.000  H
  C608     1.0000 0.16265  0.84231  0.64400  Biso   1.000  C
  C609     1.0000 0.12326  0.79121  0.57452  Biso   1.000  C
  H485     1.0000 0.26186  0.76609  0.63459  Biso   1.000  H
  H486     1.0000 0.27016  0.85419  0.63741  Biso   1.000  H
  C610     1.0000 0.31885  0.80490  0.59209  Biso   1.000  C
  C611     1.0000 0.48527  0.10739  0.69151  Biso   1.000  C
  H487     1.0000 0.48396  0.21549  0.68801  Biso   1.000  H
  H488     1.0000 0.47565  0.99990  0.68911  Biso   1.000  H
  H489     1.0000 0.93504  0.01208  0.71911  Biso   1.000  H
  H490     1.0000 0.94336  0.09949  0.71221  Biso   1.000  H
  C612     1.0000 0.99265  0.87338  0.64970  Biso   1.000  C
  C613     1.0000 0.07044  0.81890  0.63621  Biso   1.000  C
  C614     1.0000 0.14317  0.87821  0.79261  Biso   1.000  C
  H491     1.0000 0.18616  0.89412  0.73390  Biso   1.000  H
  H492     1.0000 0.16736  0.80989  0.74190  Biso   1.000  H
  C615     1.0000 0.36566  0.15119  0.83572  Biso   1.000  C
  H493     1.0000 0.41158  0.16831  0.77881  Biso   1.000  H
  H494     1.0000 0.31006  0.13569  0.88529  Biso   1.000  H
  C616     1.0000 0.88604  0.72410  0.47092  Biso   1.000  C
  C617     1.0000 0.62730  0.83592  0.21030  Biso   1.000  C
  H495     1.0000 0.66494  0.81840  0.27772  Biso   1.000  H
  C618     1.0000 0.68451  0.85429  0.15019  Biso   1.000  C
  H496     1.0000 0.76642  0.85102  0.17120  Biso   1.000  H
  C619     1.0000 0.53634  0.83048  0.32200  Biso   1.000  C
  H497     1.0000 0.60062  0.77978  0.35901  Biso   1.000  H
  C620     1.0000 0.54101  0.95202  0.32142  Biso   1.000  C
  H498     1.0000 0.60893  0.99542  0.35791  Biso   1.000  H
  O100     1.0000 0.12664  0.76150  0.53109  Biso   1.000  O
  H499     1.0000 0.10504  0.78668  0.46539  Biso   1.000  H
  H500     1.0000 0.10595  0.85309  0.50552  Biso   1.000  H
  H501     1.0000 0.19664  0.86149  0.66401  Biso   1.000  H
  C621     1.0000 0.07484  0.79262  0.59251  Biso   1.000  C
  H502     1.0000 0.32273  0.84730  0.56961  Biso   1.000  H
  H503     1.0000 0.31803  0.75889  0.57229  Biso   1.000  H
  C622     1.0000 0.36445  0.80400  0.62649  Biso   1.000  C
  H504     1.0000 0.52214  0.10528  0.71200  Biso   1.000  H
  O101     1.0000 0.02156  0.81548  0.65141  Biso   1.000  O
  H505     1.0000 0.95195  0.86029  0.64431  Biso   1.000  H
  H506     1.0000 0.00355  0.90328  0.62120  Biso   1.000  H
  C623     1.0000 0.19367  0.87171  0.82511  Biso   1.000  C
  H507     1.0000 0.12877  0.92921  0.79401  Biso   1.000  H
  H508     1.0000 0.11405  0.84382  0.80332  Biso   1.000  H
  H509     1.0000 0.39906  0.14540  0.86040  Biso   1.000  H
  C624     1.0000 0.93013  0.71302  0.50641  Biso   1.000  C
  H510     1.0000 0.84852  0.71599  0.48379  Biso   1.000  H
  H511     1.0000 0.88953  0.69258  0.44119  Biso   1.000  H
  C625     1.0000 0.63443  0.84881  0.16430  Biso   1.000  C
  H512     1.0000 0.58851  0.83169  0.22121  Biso   1.000  H
  H513     1.0000 0.69002  0.86431  0.11469  Biso   1.000  H
  C626     1.0000 0.51481  0.89261  0.30851  Biso   1.000  C
  H514     1.0000 0.51612  0.78451  0.31201  Biso   1.000  H
  H515     1.0000 0.52443  0.00010  0.31091  Biso   1.000  H
  O102     1.0000 0.03243  0.77621  0.56340  Biso   1.000  O
  C627     1.0000 0.39115  0.86351  0.63809  Biso   1.000  C
  C628     1.0000 0.38015  0.74378  0.64812  Biso   1.000  C
  C629     1.0000 0.22977  0.92408  0.82982  Biso   1.000  C
  C630     1.0000 0.20287  0.81210  0.84969  Biso   1.000  C
  C631     1.0000 0.96723  0.70748  0.53319  Biso   1.000  C
  H516     1.0000 0.60102  0.85460  0.13961  Biso   1.000  H
  H517     1.0000 0.47794  0.89472  0.28801  Biso   1.000  H
  C632     1.0000 0.01477  0.70970  0.56752  Biso   1.000  C
  C633     1.0000 0.43345  0.86290  0.67122  Biso   1.000  C
  H518     1.0000 0.37904  0.91008  0.62141  Biso   1.000  H
  C634     1.0000 0.42244  0.74308  0.68121  Biso   1.000  C
  H519     1.0000 0.35956  0.69761  0.63909  Biso   1.000  H
  C635     1.0000 0.27517  0.91688  0.85900  Biso   1.000  C
  H520     1.0000 0.22266  0.97030  0.81070  Biso   1.000  H
  C636     1.0000 0.24827  0.80490  0.87891  Biso   1.000  C
  H521     1.0000 0.17498  0.77152  0.84609  Biso   1.000  H
  H522     1.0000 0.04356  0.67360  0.55859  Biso   1.000  H
  H523     1.0000 0.00433  0.69978  0.60191  Biso   1.000  H
  C637     1.0000 0.44906  0.80269  0.69281  Biso   1.000  C
  H524     1.0000 0.45407  0.90902  0.68021  Biso   1.000  H
  H525     1.0000 0.43455  0.69651  0.69789  Biso   1.000  H
  C638     1.0000 0.28437  0.85721  0.88361  Biso   1.000  C
  H526     1.0000 0.30306  0.95741  0.86260  Biso   1.000  H
  H527     1.0000 0.25549  0.75868  0.89789  Biso   1.000  H
  H528     1.0000 0.48187  0.80219  0.71849  Biso   1.000  H
  H529     1.0000 0.31947  0.85158  0.90620  Biso   1.000  H
