data_image0
_cell_length_a       13.342
_cell_length_b       22.151
_cell_length_c       31.744
_cell_angle_alpha    90
_cell_angle_beta     90
_cell_angle_gamma    90

_symmetry_space_group_name_H-M    "P 1"
_symmetry_int_tables_number       1

loop_
  _symmetry_equiv_pos_as_xyz
  'x, y, z'

loop_
  _atom_site_label
  _atom_site_occupancy
  _atom_site_fract_x
  _atom_site_fract_y
  _atom_site_fract_z
  _atom_site_thermal_displace_type
  _atom_site_B_iso_or_equiv
  _atom_site_type_symbol
  C1       1.0000 0.22148  0.58232  0.52971  Biso   1.000  C
  C2       1.0000 0.29553  0.63081  0.52971  Biso   1.000  C
  C3       1.0000 0.27799  0.63279  0.52901  Biso   1.000  C
  H1       1.0000 0.25941  0.60778  0.50469  Biso   1.000  H
  H2       1.0000 0.23197  0.55690  0.50561  Biso   1.000  H
  H3       1.0000 0.22860  0.55880  0.55500  Biso   1.000  H
  H4       1.0000 0.15537  0.59930  0.52860  Biso   1.000  H
  C4       1.0000 0.25483  0.68751  0.54788  Biso   1.000  C
  C5       1.0000 0.18513  0.65288  0.55270  Biso   1.000  C
  C6       1.0000 0.33203  0.68959  0.51329  Biso   1.000  C
  H5       1.0000 0.35347  0.61830  0.54590  Biso   1.000  H
  H6       1.0000 0.31719  0.63839  0.50110  Biso   1.000  H
  H7       1.0000 0.32207  0.60959  0.54669  Biso   1.000  H
  C7       1.0000 0.21046  0.68430  0.59079  Biso   1.000  C
  H8       1.0000 0.30850  0.71699  0.54851  Biso   1.000  H
  H9       1.0000 0.20379  0.70272  0.52879  Biso   1.000  H
  H10      1.0000 0.14488  0.61781  0.55960  Biso   1.000  H
  H11      1.0000 0.14511  0.67920  0.53500  Biso   1.000  H
  H12      1.0000 0.38203  0.67880  0.49301  Biso   1.000  H
  H13      1.0000 0.28399  0.71640  0.50050  Biso   1.000  H
  H14      1.0000 0.36276  0.70949  0.53679  Biso   1.000  H
  O1       1.0000 0.27200  0.64783  0.61838  Biso   1.000  O
  H15      1.0000 0.14383  0.66701  0.58909  Biso   1.000  H
  H16      1.0000 0.20462  0.72471  0.60229  Biso   1.000  H
  H17      1.0000 0.24621  0.72110  0.58380  Biso   1.000  H
  H18      1.0000 0.14938  0.69550  0.60541  Biso   1.000  H
  C8       1.0000 0.26982  0.66403  0.66019  Biso   1.000  C
  C9       1.0000 0.20949  0.63311  0.68822  Biso   1.000  C
  C10      1.0000 0.33661  0.70981  0.67408  Biso   1.000  C
  C11      1.0000 0.14503  0.58201  0.67301  Biso   1.000  C
  C12      1.0000 0.21489  0.64778  0.73214  Biso   1.000  C
  C13      1.0000 0.34463  0.72466  0.71620  Biso   1.000  C
  O2       1.0000 0.39342  0.73974  0.64431  Biso   1.000  O
  O3       1.0000 0.19337  0.52774  0.68633  Biso   1.000  O
  H19      1.0000 0.13918  0.58300  0.64252  Biso   1.000  H
  H20      1.0000 0.07840  0.58480  0.68511  Biso   1.000  H
  C14      1.0000 0.28339  0.69351  0.74619  Biso   1.000  C
  C15      1.0000 0.15552  0.61839  0.76285  Biso   1.000  C
  C16      1.0000 0.42310  0.76850  0.73088  Biso   1.000  C
  C17      1.0000 0.48036  0.70588  0.63017  Biso   1.000  C
  C18      1.0000 0.14503  0.47447  0.67093  Biso   1.000  C
  C19      1.0000 0.28931  0.70629  0.78988  Biso   1.000  C
  C20      1.0000 0.16287  0.63180  0.80478  Biso   1.000  C
  H21      1.0000 0.10988  0.58909  0.75419  Biso   1.000  H
  O4       1.0000 0.50000  0.73261  0.75000  Biso   1.000  O
  H22      1.0000 0.39499  0.79658  0.75120  Biso   1.000  H
  H23      1.0000 0.44978  0.79121  0.70731  Biso   1.000  H
  H24      1.0000 0.52653  0.69952  0.65341  Biso   1.000  H
  H25      1.0000 0.46013  0.66679  0.61930  Biso   1.000  H
  C21      1.0000 0.53088  0.74322  0.59545  Biso   1.000  C
  C22      1.0000 0.20769  0.42197  0.68649  Biso   1.000  C
  H26      1.0000 0.07720  0.47181  0.68180  Biso   1.000  H
  H27      1.0000 0.14241  0.47479  0.64040  Biso   1.000  H
  H28      1.0000 0.33361  0.73568  0.79940  Biso   1.000  H
  C23      1.0000 0.23040  0.67586  0.81836  Biso   1.000  C
  H29      1.0000 0.12307  0.61148  0.82419  Biso   1.000  H
  C24      1.0000 0.57690  0.76850  0.76912  Biso   1.000  C
  H30      1.0000 0.48179  0.75161  0.57371  Biso   1.000  H
  H31      1.0000 0.58372  0.71911  0.58279  Biso   1.000  H
  C25      1.0000 0.57488  0.80168  0.61013  Biso   1.000  C
  C26      1.0000 0.26623  0.38951  0.65890  Biso   1.000  C
  C27      1.0000 0.21399  0.40964  0.73072  Biso   1.000  C
  H32      1.0000 0.23557  0.68471  0.84690  Biso   1.000  H
  H33      1.0000 0.60501  0.79658  0.74880  Biso   1.000  H
  H34      1.0000 0.55022  0.79121  0.79269  Biso   1.000  H
  C28      1.0000 0.65537  0.72466  0.78380  Biso   1.000  C
  H35      1.0000 0.52368  0.82448  0.62481  Biso   1.000  H
  H36      1.0000 0.62832  0.79328  0.63001  Biso   1.000  H
  C29      1.0000 0.61692  0.84019  0.57409  Biso   1.000  C
  O5       1.0000 0.26683  0.40332  0.61646  Biso   1.000  O
  C30      1.0000 0.33353  0.34405  0.67386  Biso   1.000  C
  C31      1.0000 0.15582  0.44165  0.76074  Biso   1.000  C
  C32      1.0000 0.28332  0.36509  0.74553  Biso   1.000  C
  C33      1.0000 0.71661  0.69351  0.75381  Biso   1.000  C
  C34      1.0000 0.66339  0.70981  0.82592  Biso   1.000  C
  H37      1.0000 0.56431  0.84931  0.55440  Biso   1.000  H
  H38      1.0000 0.64353  0.87721  0.58531  Biso   1.000  H
  H39      1.0000 0.66917  0.81838  0.55989  Biso   1.000  H
  C35      1.0000 0.19652  0.36739  0.59183  Biso   1.000  C
  O6       1.0000 0.38862  0.31172  0.64444  Biso   1.000  O
  C36      1.0000 0.34320  0.33236  0.71617  Biso   1.000  C
  H40      1.0000 0.10958  0.47009  0.75139  Biso   1.000  H
  C37      1.0000 0.16579  0.43163  0.80321  Biso   1.000  C
  C38      1.0000 0.29179  0.35592  0.78976  Biso   1.000  C
  C39      1.0000 0.71069  0.70629  0.71012  Biso   1.000  C
  C40      1.0000 0.78511  0.64778  0.76786  Biso   1.000  C
  O7       1.0000 0.60658  0.73974  0.85569  Biso   1.000  O
  C41      1.0000 0.73018  0.66403  0.83981  Biso   1.000  C
  C42      1.0000 0.20477  0.38612  0.54716  Biso   1.000  C
  H41      1.0000 0.21219  0.32482  0.59460  Biso   1.000  H
  H42      1.0000 0.12869  0.37389  0.60191  Biso   1.000  H
  C43      1.0000 0.47909  0.34161  0.63146  Biso   1.000  C
  C44      1.0000 0.42190  0.28879  0.73176  Biso   1.000  C
  H43      1.0000 0.12697  0.45321  0.82239  Biso   1.000  H
  C45      1.0000 0.23512  0.38856  0.81754  Biso   1.000  C
  H44      1.0000 0.33668  0.32730  0.79990  Biso   1.000  H
  H45      1.0000 0.66639  0.73568  0.70060  Biso   1.000  H
  C46      1.0000 0.76960  0.67586  0.68164  Biso   1.000  C
  C47      1.0000 0.79051  0.63311  0.81178  Biso   1.000  C
  C48      1.0000 0.84448  0.61839  0.73715  Biso   1.000  C
  C49      1.0000 0.51964  0.70588  0.86983  Biso   1.000  C
  O8       1.0000 0.72800  0.64783  0.88162  Biso   1.000  O
  C50      1.0000 0.30603  0.36739  0.52829  Biso   1.000  C
  H46      1.0000 0.15110  0.36770  0.53100  Biso   1.000  H
  H47      1.0000 0.19757  0.42960  0.54521  Biso   1.000  H
  H48      1.0000 0.46222  0.37249  0.61101  Biso   1.000  H
  H49      1.0000 0.50847  0.36161  0.65571  Biso   1.000  H
  C51      1.0000 0.55779  0.29922  0.61199  Biso   1.000  C
  H50      1.0000 0.46530  0.38138  0.61999  Biso   1.000  H
  H51      1.0000 0.52623  0.34531  0.65461  Biso   1.000  H
  C52      1.0000 0.51731  0.29981  0.59841  Biso   1.000  C
  O9       1.0000 0.50000  0.32491  0.75000  Biso   1.000  O
  H52      1.0000 0.44798  0.26491  0.70861  Biso   1.000  H
  H53      1.0000 0.39379  0.26170  0.75261  Biso   1.000  H
  H54      1.0000 0.24262  0.38210  0.84630  Biso   1.000  H
  H55      1.0000 0.76443  0.68471  0.65310  Biso   1.000  H
  C53      1.0000 0.83713  0.63180  0.69522  Biso   1.000  C
  C54      1.0000 0.85497  0.58201  0.82699  Biso   1.000  C
  H56      1.0000 0.89012  0.58909  0.74581  Biso   1.000  H
  H57      1.0000 0.47347  0.69952  0.84659  Biso   1.000  H
  H58      1.0000 0.53987  0.66679  0.88070  Biso   1.000  H
  C55      1.0000 0.46912  0.74322  0.90455  Biso   1.000  C
  C56      1.0000 0.78954  0.68430  0.90921  Biso   1.000  C
  C57      1.0000 0.32611  0.38210  0.48478  Biso   1.000  C
  H59      1.0000 0.31232  0.32400  0.53150  Biso   1.000  H
  H60      1.0000 0.35827  0.38572  0.54530  Biso   1.000  H
  H61      1.0000 0.56671  0.26441  0.63020  Biso   1.000  H
  H62      1.0000 0.62157  0.32021  0.61019  Biso   1.000  H
  C58      1.0000 0.52811  0.27868  0.56959  Biso   1.000  C
  H63      1.0000 0.57098  0.31958  0.58301  Biso   1.000  H
  C59      1.0000 0.55479  0.24252  0.61571  Biso   1.000  C
  H64      1.0000 0.46380  0.29141  0.57850  Biso   1.000  H
  C60      1.0000 0.57810  0.28879  0.76824  Biso   1.000  C
  H65      1.0000 0.87693  0.61148  0.67581  Biso   1.000  H
  O10      1.0000 0.80663  0.52774  0.81367  Biso   1.000  O
  H66      1.0000 0.86082  0.58300  0.85748  Biso   1.000  H
  H67      1.0000 0.92160  0.58480  0.81489  Biso   1.000  H
  H68      1.0000 0.51821  0.75161  0.92629  Biso   1.000  H
  H69      1.0000 0.41628  0.71911  0.91721  Biso   1.000  H
  C61      1.0000 0.42512  0.80168  0.88987  Biso   1.000  C
  H70      1.0000 0.85617  0.66701  0.91091  Biso   1.000  H
  H71      1.0000 0.79538  0.72471  0.89771  Biso   1.000  H
  C62      1.0000 0.74517  0.68751  0.95212  Biso   1.000  C
  H72      1.0000 0.75379  0.72110  0.91620  Biso   1.000  H
  H73      1.0000 0.85062  0.69550  0.89459  Biso   1.000  H
  C63      1.0000 0.81487  0.65288  0.94730  Biso   1.000  C
  H74      1.0000 0.28459  0.35768  0.46680  Biso   1.000  H
  H75      1.0000 0.31172  0.42400  0.47990  Biso   1.000  H
  H76      1.0000 0.39537  0.37429  0.47861  Biso   1.000  H
  H77      1.0000 0.46567  0.25629  0.57069  Biso   1.000  H
  H78      1.0000 0.52001  0.31272  0.55069  Biso   1.000  H
  C64      1.0000 0.62187  0.23480  0.55440  Biso   1.000  C
  H79      1.0000 0.60283  0.25109  0.63788  Biso   1.000  H
  H80      1.0000 0.49933  0.22062  0.62821  Biso   1.000  H
  C65      1.0000 0.60508  0.20238  0.58219  Biso   1.000  C
  C66      1.0000 0.65680  0.33236  0.78383  Biso   1.000  C
  H81      1.0000 0.55202  0.26491  0.79139  Biso   1.000  H
  H82      1.0000 0.60621  0.26170  0.74739  Biso   1.000  H
  C67      1.0000 0.85497  0.47447  0.82907  Biso   1.000  C
  H83      1.0000 0.47632  0.82448  0.87519  Biso   1.000  H
  H84      1.0000 0.37168  0.79328  0.86999  Biso   1.000  H
  C68      1.0000 0.38308  0.84019  0.92591  Biso   1.000  C
  H85      1.0000 0.69150  0.71699  0.95149  Biso   1.000  H
  H86      1.0000 0.79621  0.70272  0.97121  Biso   1.000  H
  C69      1.0000 0.70447  0.63081  0.97029  Biso   1.000  C
  C70      1.0000 0.72201  0.63279  0.97099  Biso   1.000  C
  C71      1.0000 0.66797  0.68959  0.98671  Biso   1.000  C
  H87      1.0000 0.85512  0.61781  0.94040  Biso   1.000  H
  H88      1.0000 0.85489  0.67920  0.96500  Biso   1.000  H
  H89      1.0000 0.61363  0.22459  0.52520  Biso   1.000  H
  H90      1.0000 0.68423  0.25588  0.55809  Biso   1.000  H
  H91      1.0000 0.62232  0.19859  0.57101  Biso   1.000  H
  H92      1.0000 0.56753  0.20428  0.55651  Biso   1.000  H
  H93      1.0000 0.67216  0.21638  0.57731  Biso   1.000  H
  H94      1.0000 0.60711  0.16139  0.59211  Biso   1.000  H
  C72      1.0000 0.71668  0.36509  0.75447  Biso   1.000  C
  C73      1.0000 0.66647  0.34405  0.82614  Biso   1.000  C
  C74      1.0000 0.79231  0.42197  0.81351  Biso   1.000  C
  H95      1.0000 0.92280  0.47181  0.81820  Biso   1.000  H
  H96      1.0000 0.85759  0.47479  0.85960  Biso   1.000  H
  H97      1.0000 0.43569  0.84931  0.94560  Biso   1.000  H
  H98      1.0000 0.35647  0.87721  0.91469  Biso   1.000  H
  H99      1.0000 0.33083  0.81838  0.94011  Biso   1.000  H
  H100     1.0000 0.64653  0.61830  0.95410  Biso   1.000  H
  H101     1.0000 0.68281  0.63839  0.99890  Biso   1.000  H
  C75      1.0000 0.77852  0.58232  0.97029  Biso   1.000  C
  H102     1.0000 0.74059  0.60778  0.99531  Biso   1.000  H
  H103     1.0000 0.67793  0.60959  0.95331  Biso   1.000  H
  H104     1.0000 0.71601  0.71640  0.99950  Biso   1.000  H
  H105     1.0000 0.63724  0.70949  0.96321  Biso   1.000  H
  H106     1.0000 0.61797  0.67880  0.00699  Biso   1.000  H
  C76      1.0000 0.78601  0.40964  0.76928  Biso   1.000  C
  C77      1.0000 0.70821  0.35592  0.71024  Biso   1.000  C
  O11      1.0000 0.61138  0.31172  0.85556  Biso   1.000  O
  C78      1.0000 0.73377  0.38951  0.84110  Biso   1.000  C
  H107     1.0000 0.76803  0.55690  0.99439  Biso   1.000  H
  H108     1.0000 0.77140  0.55880  0.94500  Biso   1.000  H
  H109     1.0000 0.84463  0.59930  0.97140  Biso   1.000  H
  C79      1.0000 0.84418  0.44165  0.73926  Biso   1.000  C
  C80      1.0000 0.76488  0.38856  0.68246  Biso   1.000  C
  H110     1.0000 0.66332  0.32730  0.70010  Biso   1.000  H
  C81      1.0000 0.52091  0.34161  0.86854  Biso   1.000  C
  O12      1.0000 0.73317  0.40332  0.88354  Biso   1.000  O
  H111     1.0000 0.89042  0.47009  0.74861  Biso   1.000  H
  C82      1.0000 0.83421  0.43163  0.69679  Biso   1.000  C
  H112     1.0000 0.75738  0.38210  0.65370  Biso   1.000  H
  H113     1.0000 0.53778  0.37249  0.88899  Biso   1.000  H
  H114     1.0000 0.49153  0.36161  0.84429  Biso   1.000  H
  C83      1.0000 0.44221  0.29922  0.88801  Biso   1.000  C
  H115     1.0000 0.53470  0.38138  0.88001  Biso   1.000  H
  H116     1.0000 0.47377  0.34531  0.84539  Biso   1.000  H
  C84      1.0000 0.48269  0.29981  0.90159  Biso   1.000  C
  C85      1.0000 0.80348  0.36739  0.90817  Biso   1.000  C
  H117     1.0000 0.87303  0.45321  0.67761  Biso   1.000  H
  H118     1.0000 0.43329  0.26441  0.86980  Biso   1.000  H
  H119     1.0000 0.37843  0.32021  0.88981  Biso   1.000  H
  C86      1.0000 0.47189  0.27868  0.93041  Biso   1.000  C
  H120     1.0000 0.42902  0.31958  0.91699  Biso   1.000  H
  C87      1.0000 0.44521  0.24252  0.88429  Biso   1.000  C
  H121     1.0000 0.53620  0.29141  0.92150  Biso   1.000  H
  H122     1.0000 0.78781  0.32482  0.90540  Biso   1.000  H
  H123     1.0000 0.87131  0.37389  0.89809  Biso   1.000  H
  C88      1.0000 0.79523  0.38612  0.95284  Biso   1.000  C
  H124     1.0000 0.53433  0.25629  0.92931  Biso   1.000  H
  H125     1.0000 0.47999  0.31272  0.94931  Biso   1.000  H
  C89      1.0000 0.37813  0.23480  0.94560  Biso   1.000  C
  H126     1.0000 0.39717  0.25109  0.86212  Biso   1.000  H
  H127     1.0000 0.50067  0.22062  0.87179  Biso   1.000  H
  C90      1.0000 0.39492  0.20238  0.91781  Biso   1.000  C
  H128     1.0000 0.84890  0.36770  0.96900  Biso   1.000  H
  H129     1.0000 0.80243  0.42960  0.95479  Biso   1.000  H
  C91      1.0000 0.69397  0.36739  0.97171  Biso   1.000  C
  H130     1.0000 0.38637  0.22459  0.97480  Biso   1.000  H
  H131     1.0000 0.31577  0.25588  0.94191  Biso   1.000  H
  H132     1.0000 0.37768  0.19859  0.92899  Biso   1.000  H
  H133     1.0000 0.43247  0.20428  0.94349  Biso   1.000  H
  H134     1.0000 0.32784  0.21638  0.92269  Biso   1.000  H
  H135     1.0000 0.39289  0.16139  0.90789  Biso   1.000  H
  H136     1.0000 0.68768  0.32400  0.96850  Biso   1.000  H
  H137     1.0000 0.64173  0.38572  0.95470  Biso   1.000  H
  C92      1.0000 0.67389  0.38210  0.01522  Biso   1.000  C
  H138     1.0000 0.71541  0.35768  0.03320  Biso   1.000  H
  H139     1.0000 0.68828  0.42400  0.02010  Biso   1.000  H
  H140     1.0000 0.60463  0.37429  0.02139  Biso   1.000  H
  C93      1.0000 0.11692  0.65979  0.42591  Biso   1.000  C
  C94      1.0000 0.07488  0.69830  0.38987  Biso   1.000  C
  H141     1.0000 0.06431  0.65072  0.44560  Biso   1.000  H
  H142     1.0000 0.14353  0.62282  0.41469  Biso   1.000  H
  H143     1.0000 0.16917  0.68159  0.44011  Biso   1.000  H
  C95      1.0000 0.03088  0.75681  0.40455  Biso   1.000  C
  H144     1.0000 0.02368  0.67550  0.37519  Biso   1.000  H
  H145     1.0000 0.12832  0.70669  0.36999  Biso   1.000  H
  H146     1.0000 0.08372  0.78091  0.41721  Biso   1.000  H
  C96      1.0000 0.98036  0.79414  0.36983  Biso   1.000  C
  H147     1.0000 0.98179  0.74841  0.42629  Biso   1.000  H
  H148     1.0000 0.02653  0.80051  0.34659  Biso   1.000  H
  O13      1.0000 0.89342  0.76028  0.35569  Biso   1.000  O
  H149     1.0000 0.96013  0.83319  0.38070  Biso   1.000  H
  C97      1.0000 0.83661  0.79017  0.32592  Biso   1.000  C
  C98      1.0000 0.84463  0.77536  0.28380  Biso   1.000  C
  C99      1.0000 0.76982  0.83599  0.33981  Biso   1.000  C
  C100     1.0000 0.92310  0.73148  0.26912  Biso   1.000  C
  C101     1.0000 0.78339  0.80651  0.25381  Biso   1.000  C
  O14      1.0000 0.77200  0.85220  0.38162  Biso   1.000  O
  C102     1.0000 0.70949  0.86691  0.31178  Biso   1.000  C
  O15      1.0000 0.00000  0.76737  0.25000  Biso   1.000  O
  H150     1.0000 0.89499  0.70340  0.24880  Biso   1.000  H
  H151     1.0000 0.94978  0.70882  0.29269  Biso   1.000  H
  C103     1.0000 0.78931  0.79373  0.21012  Biso   1.000  C
  C104     1.0000 0.71489  0.85220  0.26786  Biso   1.000  C
  C105     1.0000 0.71046  0.81572  0.40921  Biso   1.000  C
  C106     1.0000 0.64503  0.91802  0.32699  Biso   1.000  C
  C107     1.0000 0.07690  0.73148  0.23088  Biso   1.000  C
  H152     1.0000 0.83361  0.76430  0.20060  Biso   1.000  H
  C108     1.0000 0.73040  0.82416  0.18164  Biso   1.000  C
  C109     1.0000 0.65552  0.88159  0.23715  Biso   1.000  C
  H153     1.0000 0.64383  0.83301  0.41091  Biso   1.000  H
  H154     1.0000 0.70462  0.77531  0.39771  Biso   1.000  H
  C110     1.0000 0.75483  0.81251  0.45212  Biso   1.000  C
  H155     1.0000 0.74621  0.77888  0.41620  Biso   1.000  H
  H156     1.0000 0.64938  0.80448  0.39459  Biso   1.000  H
  C111     1.0000 0.68513  0.84709  0.44730  Biso   1.000  C
  O16      1.0000 0.69337  0.97224  0.31367  Biso   1.000  O
  H157     1.0000 0.63918  0.91698  0.35748  Biso   1.000  H
  H158     1.0000 0.57840  0.91522  0.31489  Biso   1.000  H
  H159     1.0000 0.10501  0.70340  0.25120  Biso   1.000  H
  H160     1.0000 0.05022  0.70882  0.20731  Biso   1.000  H
  C112     1.0000 0.15537  0.77536  0.21620  Biso   1.000  C
  H161     1.0000 0.73557  0.81531  0.15310  Biso   1.000  H
  C113     1.0000 0.66287  0.86822  0.19522  Biso   1.000  C
  H162     1.0000 0.60988  0.91088  0.24581  Biso   1.000  H
  H163     1.0000 0.80850  0.78299  0.45149  Biso   1.000  H
  H164     1.0000 0.70379  0.79730  0.47121  Biso   1.000  H
  C114     1.0000 0.79553  0.86922  0.47029  Biso   1.000  C
  C115     1.0000 0.77799  0.86718  0.47099  Biso   1.000  C
  C116     1.0000 0.83203  0.81039  0.48671  Biso   1.000  C
  H165     1.0000 0.64488  0.88222  0.44040  Biso   1.000  H
  H166     1.0000 0.64511  0.82082  0.46500  Biso   1.000  H
  C117     1.0000 0.64503  0.02551  0.32907  Biso   1.000  C
  C118     1.0000 0.21661  0.80651  0.24619  Biso   1.000  C
  C119     1.0000 0.16339  0.79017  0.17408  Biso   1.000  C
  H167     1.0000 0.62307  0.88849  0.17581  Biso   1.000  H
  H168     1.0000 0.85347  0.88172  0.45410  Biso   1.000  H
  H169     1.0000 0.81719  0.86159  0.49890  Biso   1.000  H
  C120     1.0000 0.72148  0.91770  0.47029  Biso   1.000  C
  H170     1.0000 0.75941  0.89219  0.49531  Biso   1.000  H
  H171     1.0000 0.82207  0.89039  0.45331  Biso   1.000  H
  H172     1.0000 0.88203  0.82118  0.50699  Biso   1.000  H
  H173     1.0000 0.78399  0.78362  0.49950  Biso   1.000  H
  H174     1.0000 0.86276  0.79048  0.46321  Biso   1.000  H
  H175     1.0000 0.57720  0.02822  0.31820  Biso   1.000  H
  H176     1.0000 0.64241  0.02519  0.35960  Biso   1.000  H
  C121     1.0000 0.70769  0.07801  0.31351  Biso   1.000  C
  C122     1.0000 0.21069  0.79373  0.28988  Biso   1.000  C
  C123     1.0000 0.28511  0.85220  0.23214  Biso   1.000  C
  O17      1.0000 0.10658  0.76028  0.14431  Biso   1.000  O
  C124     1.0000 0.23018  0.83599  0.16019  Biso   1.000  C
  H177     1.0000 0.73197  0.94312  0.49439  Biso   1.000  H
  H178     1.0000 0.72860  0.94122  0.44500  Biso   1.000  H
  H179     1.0000 0.65537  0.90068  0.47140  Biso   1.000  H
  C125     1.0000 0.71399  0.09038  0.26928  Biso   1.000  C
  C126     1.0000 0.76623  0.11047  0.34110  Biso   1.000  C
  H180     1.0000 0.16639  0.76430  0.29940  Biso   1.000  H
  C127     1.0000 0.26960  0.82416  0.31836  Biso   1.000  C
  C128     1.0000 0.34448  0.88159  0.26285  Biso   1.000  C
  C129     1.0000 0.29051  0.86691  0.18822  Biso   1.000  C
  C130     1.0000 0.01964  0.79414  0.13017  Biso   1.000  C
  O18      1.0000 0.22800  0.85220  0.11838  Biso   1.000  O
  C131     1.0000 0.65582  0.05837  0.23926  Biso   1.000  C
  C132     1.0000 0.78332  0.13489  0.25447  Biso   1.000  C
  O19      1.0000 0.76683  0.09665  0.38354  Biso   1.000  O
  C133     1.0000 0.83353  0.15593  0.32614  Biso   1.000  C
  H181     1.0000 0.26443  0.81531  0.34690  Biso   1.000  H
  C134     1.0000 0.33713  0.86822  0.30478  Biso   1.000  C
  H182     1.0000 0.39012  0.91088  0.25419  Biso   1.000  H
  C135     1.0000 0.35497  0.91802  0.17301  Biso   1.000  C
  H183     1.0000 0.03987  0.83319  0.11930  Biso   1.000  H
  H184     1.0000 0.97347  0.80051  0.15341  Biso   1.000  H
  C136     1.0000 0.96912  0.75681  0.09545  Biso   1.000  C
  C137     1.0000 0.28954  0.81572  0.09079  Biso   1.000  C
  H185     1.0000 0.60958  0.02989  0.24861  Biso   1.000  H
  C138     1.0000 0.66579  0.06839  0.19679  Biso   1.000  C
  C139     1.0000 0.79179  0.14410  0.21024  Biso   1.000  C
  C140     1.0000 0.84320  0.16762  0.28383  Biso   1.000  C
  C141     1.0000 0.69652  0.13259  0.40817  Biso   1.000  C
  O20      1.0000 0.88862  0.18830  0.35556  Biso   1.000  O
  H186     1.0000 0.37693  0.88849  0.32419  Biso   1.000  H
  O21      1.0000 0.30663  0.97224  0.18633  Biso   1.000  O
  H187     1.0000 0.36082  0.91698  0.14252  Biso   1.000  H
  H188     1.0000 0.42160  0.91522  0.18511  Biso   1.000  H
  H189     1.0000 0.01821  0.74841  0.07371  Biso   1.000  H
  H190     1.0000 0.91628  0.78091  0.08279  Biso   1.000  H
  C142     1.0000 0.92512  0.69830  0.11013  Biso   1.000  C
  H191     1.0000 0.35617  0.83301  0.08909  Biso   1.000  H
  H192     1.0000 0.29538  0.77531  0.10229  Biso   1.000  H
  C143     1.0000 0.24517  0.81251  0.04788  Biso   1.000  C
  H193     1.0000 0.25379  0.77888  0.08380  Biso   1.000  H
  H194     1.0000 0.35062  0.80448  0.10541  Biso   1.000  H
  C144     1.0000 0.31487  0.84709  0.05270  Biso   1.000  C
  H195     1.0000 0.62697  0.04682  0.17761  Biso   1.000  H
  C145     1.0000 0.73512  0.11142  0.18246  Biso   1.000  C
  H196     1.0000 0.83668  0.17268  0.20010  Biso   1.000  H
  C146     1.0000 0.92190  0.21119  0.26824  Biso   1.000  C
  H197     1.0000 0.71219  0.17521  0.40540  Biso   1.000  H
  H198     1.0000 0.62869  0.12609  0.39809  Biso   1.000  H
  C147     1.0000 0.70477  0.11390  0.45284  Biso   1.000  C
  C148     1.0000 0.97909  0.15841  0.36854  Biso   1.000  C
  C149     1.0000 0.35497  0.02551  0.17093  Biso   1.000  C
  H199     1.0000 0.97632  0.67550  0.12481  Biso   1.000  H
  H200     1.0000 0.87168  0.70669  0.13001  Biso   1.000  H
  C150     1.0000 0.88308  0.65979  0.07409  Biso   1.000  C
  H201     1.0000 0.19150  0.78299  0.04851  Biso   1.000  H
  H202     1.0000 0.29621  0.79730  0.02879  Biso   1.000  H
  C151     1.0000 0.20447  0.86922  0.02971  Biso   1.000  C
  C152     1.0000 0.22201  0.86718  0.02901  Biso   1.000  C
  C153     1.0000 0.16797  0.81039  0.01329  Biso   1.000  C
  H203     1.0000 0.35512  0.88222  0.05960  Biso   1.000  H
  H204     1.0000 0.35489  0.82082  0.03500  Biso   1.000  H
  H205     1.0000 0.74262  0.11792  0.15370  Biso   1.000  H
  H206     1.0000 0.94798  0.23511  0.29139  Biso   1.000  H
  H207     1.0000 0.89379  0.23832  0.24739  Biso   1.000  H
  O22      1.0000 0.00000  0.17507  0.25000  Biso   1.000  O
  H208     1.0000 0.65110  0.13232  0.46900  Biso   1.000  H
  H209     1.0000 0.69757  0.07038  0.45479  Biso   1.000  H
  C154     1.0000 0.80603  0.13259  0.47171  Biso   1.000  C
  H210     1.0000 0.96222  0.12749  0.38899  Biso   1.000  H
  H211     1.0000 0.96530  0.11860  0.38001  Biso   1.000  H
  H212     1.0000 0.00847  0.13841  0.34429  Biso   1.000  H
  C155     1.0000 0.05779  0.20080  0.38801  Biso   1.000  C
  H213     1.0000 0.02623  0.15471  0.34539  Biso   1.000  H
  C156     1.0000 0.01731  0.20022  0.40159  Biso   1.000  C
  H214     1.0000 0.42280  0.02822  0.18180  Biso   1.000  H
  H215     1.0000 0.35759  0.02519  0.14040  Biso   1.000  H
  C157     1.0000 0.29231  0.07801  0.18649  Biso   1.000  C
  H216     1.0000 0.93569  0.65072  0.05440  Biso   1.000  H
  H217     1.0000 0.85647  0.62282  0.08531  Biso   1.000  H
  H218     1.0000 0.83083  0.68159  0.05989  Biso   1.000  H
  H219     1.0000 0.14653  0.88172  0.04590  Biso   1.000  H
  H220     1.0000 0.18281  0.86159  0.00110  Biso   1.000  H
  C158     1.0000 0.27852  0.91770  0.02971  Biso   1.000  C
  H221     1.0000 0.24059  0.89219  0.00469  Biso   1.000  H
  H222     1.0000 0.17793  0.89039  0.04669  Biso   1.000  H
  H223     1.0000 0.11797  0.82118  0.99301  Biso   1.000  H
  H224     1.0000 0.21601  0.78362  0.00050  Biso   1.000  H
  H225     1.0000 0.13724  0.79048  0.03679  Biso   1.000  H
  C159     1.0000 0.07810  0.21119  0.23176  Biso   1.000  C
  H226     1.0000 0.81232  0.17602  0.46850  Biso   1.000  H
  H227     1.0000 0.85827  0.11431  0.45470  Biso   1.000  H
  C160     1.0000 0.82611  0.11792  0.51522  Biso   1.000  C
  H228     1.0000 0.06671  0.23561  0.36980  Biso   1.000  H
  H229     1.0000 0.12157  0.17981  0.38981  Biso   1.000  H
  C161     1.0000 0.02811  0.22130  0.43041  Biso   1.000  C
  H230     1.0000 0.07098  0.18040  0.41699  Biso   1.000  H
  C162     1.0000 0.05479  0.25751  0.38429  Biso   1.000  C
  H231     1.0000 0.96380  0.20861  0.42150  Biso   1.000  H
  C163     1.0000 0.28601  0.09038  0.23072  Biso   1.000  C
  C164     1.0000 0.23377  0.11047  0.15890  Biso   1.000  C
  H232     1.0000 0.26803  0.94312  0.00561  Biso   1.000  H
  H233     1.0000 0.27140  0.94122  0.05500  Biso   1.000  H
  H234     1.0000 0.34463  0.90068  0.02860  Biso   1.000  H
  C165     1.0000 0.15680  0.16762  0.21617  Biso   1.000  C
  H235     1.0000 0.05202  0.23511  0.20861  Biso   1.000  H
  H236     1.0000 0.10621  0.23832  0.25261  Biso   1.000  H
  H237     1.0000 0.78459  0.14230  0.53320  Biso   1.000  H
  H238     1.0000 0.81172  0.07598  0.52010  Biso   1.000  H
  H239     1.0000 0.89537  0.12568  0.52139  Biso   1.000  H
  H240     1.0000 0.96567  0.24369  0.42931  Biso   1.000  H
  H241     1.0000 0.02001  0.18731  0.44931  Biso   1.000  H
  C166     1.0000 0.12187  0.26518  0.44560  Biso   1.000  C
  H242     1.0000 0.99933  0.27940  0.37179  Biso   1.000  H
  H243     1.0000 0.10283  0.24888  0.36212  Biso   1.000  H
  C167     1.0000 0.10508  0.29759  0.41781  Biso   1.000  C
  C168     1.0000 0.34418  0.05837  0.26074  Biso   1.000  C
  C169     1.0000 0.21668  0.13489  0.24553  Biso   1.000  C
  O23      1.0000 0.23317  0.09665  0.11646  Biso   1.000  O
  C170     1.0000 0.16647  0.15593  0.17386  Biso   1.000  C
  H244     1.0000 0.11363  0.27538  0.47480  Biso   1.000  H
  H245     1.0000 0.18423  0.24410  0.44191  Biso   1.000  H
  H246     1.0000 0.12232  0.30139  0.42899  Biso   1.000  H
  H247     1.0000 0.06753  0.29570  0.44349  Biso   1.000  H
  H248     1.0000 0.17216  0.28360  0.42269  Biso   1.000  H
  H249     1.0000 0.10711  0.33859  0.40789  Biso   1.000  H
  H250     1.0000 0.39042  0.02989  0.25139  Biso   1.000  H
  C171     1.0000 0.33421  0.06839  0.30321  Biso   1.000  C
  C172     1.0000 0.20821  0.14410  0.28976  Biso   1.000  C
  C173     1.0000 0.30348  0.13259  0.09183  Biso   1.000  C
  O24      1.0000 0.11138  0.18830  0.14444  Biso   1.000  O
  H251     1.0000 0.37303  0.04682  0.32239  Biso   1.000  H
  C174     1.0000 0.26488  0.11142  0.31754  Biso   1.000  C
  H252     1.0000 0.16332  0.17268  0.29990  Biso   1.000  H
  H253     1.0000 0.28781  0.17521  0.09460  Biso   1.000  H
  H254     1.0000 0.37131  0.12609  0.10191  Biso   1.000  H
  C175     1.0000 0.29523  0.11390  0.04716  Biso   1.000  C
  C176     1.0000 0.02091  0.15841  0.13146  Biso   1.000  C
  H255     1.0000 0.25738  0.11792  0.34630  Biso   1.000  H
  H256     1.0000 0.34890  0.13232  0.03100  Biso   1.000  H
  H257     1.0000 0.30243  0.07038  0.04521  Biso   1.000  H
  C177     1.0000 0.19397  0.13259  0.02829  Biso   1.000  C
  H258     1.0000 0.99153  0.13841  0.15571  Biso   1.000  H
  C178     1.0000 0.94221  0.20080  0.11199  Biso   1.000  C
  H259     1.0000 0.97377  0.15471  0.15461  Biso   1.000  H
  C179     1.0000 0.98269  0.20022  0.09841  Biso   1.000  C
  H260     1.0000 0.03778  0.12749  0.11101  Biso   1.000  H
  H261     1.0000 0.03470  0.11860  0.11999  Biso   1.000  H
  C180     1.0000 0.17389  0.11792  0.98478  Biso   1.000  C
  H262     1.0000 0.18768  0.17602  0.03150  Biso   1.000  H
  H263     1.0000 0.14173  0.11431  0.04530  Biso   1.000  H
  H264     1.0000 0.93329  0.23561  0.13020  Biso   1.000  H
  H265     1.0000 0.87843  0.17981  0.11019  Biso   1.000  H
  C181     1.0000 0.97189  0.22130  0.06959  Biso   1.000  C
  H266     1.0000 0.92902  0.18040  0.08301  Biso   1.000  H
  C182     1.0000 0.94521  0.25751  0.11571  Biso   1.000  C
  H267     1.0000 0.03620  0.20861  0.07850  Biso   1.000  H
  H268     1.0000 0.21541  0.14230  0.96680  Biso   1.000  H
  H269     1.0000 0.18828  0.07598  0.97990  Biso   1.000  H
  H270     1.0000 0.10463  0.12568  0.97861  Biso   1.000  H
  H271     1.0000 0.97999  0.18731  0.05069  Biso   1.000  H
  C183     1.0000 0.87813  0.26518  0.05440  Biso   1.000  C
  H272     1.0000 0.03433  0.24369  0.07069  Biso   1.000  H
  H273     1.0000 0.89717  0.24888  0.13788  Biso   1.000  H
  C184     1.0000 0.89492  0.29759  0.08219  Biso   1.000  C
  H274     1.0000 0.00067  0.27940  0.12821  Biso   1.000  H
  H275     1.0000 0.88637  0.27538  0.02520  Biso   1.000  H
  H276     1.0000 0.81577  0.24410  0.05809  Biso   1.000  H
  H277     1.0000 0.87768  0.30139  0.07101  Biso   1.000  H
  H278     1.0000 0.93247  0.29570  0.05651  Biso   1.000  H
  H279     1.0000 0.82784  0.28360  0.07731  Biso   1.000  H
  H280     1.0000 0.89289  0.33859  0.09211  Biso   1.000  H
  C185     1.0000 0.88308  0.34021  0.57409  Biso   1.000  C
  C186     1.0000 0.92512  0.30170  0.61013  Biso   1.000  C
  H281     1.0000 0.93569  0.34928  0.55440  Biso   1.000  H
  H282     1.0000 0.85647  0.37718  0.58531  Biso   1.000  H
  H283     1.0000 0.83083  0.31841  0.55989  Biso   1.000  H
  C187     1.0000 0.96912  0.24319  0.59545  Biso   1.000  C
  H284     1.0000 0.97632  0.32450  0.62481  Biso   1.000  H
  H285     1.0000 0.87168  0.29331  0.63001  Biso   1.000  H
  C188     1.0000 0.01964  0.20586  0.63017  Biso   1.000  C
  H286     1.0000 0.01821  0.25159  0.57371  Biso   1.000  H
  H287     1.0000 0.91628  0.21909  0.58279  Biso   1.000  H
  O25      1.0000 0.10658  0.23972  0.64431  Biso   1.000  O
  H288     1.0000 0.03987  0.16681  0.61930  Biso   1.000  H
  H289     1.0000 0.97347  0.19949  0.65341  Biso   1.000  H
  C189     1.0000 0.16339  0.20983  0.67408  Biso   1.000  C
  C190     1.0000 0.23018  0.16401  0.66019  Biso   1.000  C
  C191     1.0000 0.15537  0.22464  0.71620  Biso   1.000  C
  O26      1.0000 0.22800  0.14780  0.61838  Biso   1.000  O
  C192     1.0000 0.29051  0.13309  0.68822  Biso   1.000  C
  C193     1.0000 0.21661  0.19349  0.74619  Biso   1.000  C
  C194     1.0000 0.07690  0.26852  0.73088  Biso   1.000  C
  C195     1.0000 0.28954  0.18428  0.59079  Biso   1.000  C
  C196     1.0000 0.28511  0.14780  0.73214  Biso   1.000  C
  C197     1.0000 0.35497  0.08198  0.67301  Biso   1.000  C
  C198     1.0000 0.21069  0.20627  0.78988  Biso   1.000  C
  O27      1.0000 0.00000  0.23263  0.75000  Biso   1.000  O
  H290     1.0000 0.10501  0.29660  0.75120  Biso   1.000  H
  H291     1.0000 0.05022  0.29118  0.70731  Biso   1.000  H
  C199     1.0000 0.24517  0.18749  0.54788  Biso   1.000  C
  C200     1.0000 0.31487  0.15291  0.55270  Biso   1.000  C
  H292     1.0000 0.35617  0.16699  0.58909  Biso   1.000  H
  H293     1.0000 0.29538  0.22469  0.60229  Biso   1.000  H
  H294     1.0000 0.25379  0.22112  0.58380  Biso   1.000  H
  H295     1.0000 0.35062  0.19552  0.60541  Biso   1.000  H
  C201     1.0000 0.34448  0.11841  0.76285  Biso   1.000  C
  O28      1.0000 0.30663  0.02776  0.68633  Biso   1.000  O
  H296     1.0000 0.36082  0.08302  0.64252  Biso   1.000  H
  H297     1.0000 0.42160  0.08478  0.68511  Biso   1.000  H
  H298     1.0000 0.16639  0.23570  0.79940  Biso   1.000  H
  C202     1.0000 0.26960  0.17584  0.81836  Biso   1.000  C
  C203     1.0000 0.92310  0.26852  0.76912  Biso   1.000  C
  C204     1.0000 0.20447  0.13078  0.52971  Biso   1.000  C
  C205     1.0000 0.16797  0.18961  0.51329  Biso   1.000  C
  H299     1.0000 0.19150  0.21701  0.54851  Biso   1.000  H
  H300     1.0000 0.29621  0.20270  0.52879  Biso   1.000  H
  C206     1.0000 0.22201  0.13282  0.52901  Biso   1.000  C
  H301     1.0000 0.35512  0.11778  0.55960  Biso   1.000  H
  H302     1.0000 0.35489  0.17918  0.53500  Biso   1.000  H
  C207     1.0000 0.33713  0.13178  0.80478  Biso   1.000  C
  H303     1.0000 0.39012  0.08912  0.75419  Biso   1.000  H
  C208     1.0000 0.35497  0.97449  0.67093  Biso   1.000  C
  H304     1.0000 0.26443  0.18469  0.84690  Biso   1.000  H
  H305     1.0000 0.89499  0.29660  0.74880  Biso   1.000  H
  H306     1.0000 0.94978  0.29118  0.79269  Biso   1.000  H
  C209     1.0000 0.84463  0.22464  0.78380  Biso   1.000  C
  H307     1.0000 0.14653  0.11828  0.54590  Biso   1.000  H
  H308     1.0000 0.18281  0.13841  0.50110  Biso   1.000  H
  C210     1.0000 0.27852  0.08230  0.52971  Biso   1.000  C
  H309     1.0000 0.24059  0.10781  0.50469  Biso   1.000  H
  H310     1.0000 0.17793  0.10961  0.54669  Biso   1.000  H
  H311     1.0000 0.11797  0.17882  0.49301  Biso   1.000  H
  H312     1.0000 0.21601  0.21638  0.50050  Biso   1.000  H
  H313     1.0000 0.13724  0.20952  0.53679  Biso   1.000  H
  H314     1.0000 0.37693  0.11151  0.82419  Biso   1.000  H
  H315     1.0000 0.42280  0.97178  0.68180  Biso   1.000  H
  H316     1.0000 0.35759  0.97481  0.64040  Biso   1.000  H
  C211     1.0000 0.29231  0.92199  0.68649  Biso   1.000  C
  C212     1.0000 0.78339  0.19349  0.75381  Biso   1.000  C
  C213     1.0000 0.83661  0.20983  0.82592  Biso   1.000  C
  H317     1.0000 0.26803  0.05688  0.50561  Biso   1.000  H
  H318     1.0000 0.27140  0.05878  0.55500  Biso   1.000  H
  H319     1.0000 0.34463  0.09932  0.52860  Biso   1.000  H
  C214     1.0000 0.28601  0.90962  0.73072  Biso   1.000  C
  C215     1.0000 0.23377  0.88953  0.65890  Biso   1.000  C
  C216     1.0000 0.78931  0.20627  0.71012  Biso   1.000  C
  C217     1.0000 0.71489  0.14780  0.76786  Biso   1.000  C
  O29      1.0000 0.89342  0.23972  0.85569  Biso   1.000  O
  C218     1.0000 0.76982  0.16401  0.83981  Biso   1.000  C
  C219     1.0000 0.34418  0.94163  0.76074  Biso   1.000  C
  C220     1.0000 0.21668  0.86511  0.74553  Biso   1.000  C
  O30      1.0000 0.23317  0.90335  0.61646  Biso   1.000  O
  C221     1.0000 0.16647  0.84407  0.67386  Biso   1.000  C
  H320     1.0000 0.83361  0.23570  0.70060  Biso   1.000  H
  C222     1.0000 0.73040  0.17584  0.68164  Biso   1.000  C
  C223     1.0000 0.65552  0.11841  0.73715  Biso   1.000  C
  C224     1.0000 0.70949  0.13309  0.81178  Biso   1.000  C
  C225     1.0000 0.98036  0.20586  0.86983  Biso   1.000  C
  O31      1.0000 0.77200  0.14780  0.88162  Biso   1.000  O
  H321     1.0000 0.39042  0.97011  0.75139  Biso   1.000  H
  C226     1.0000 0.33421  0.93161  0.80321  Biso   1.000  C
  C227     1.0000 0.20821  0.85590  0.78976  Biso   1.000  C
  C228     1.0000 0.15680  0.83238  0.71617  Biso   1.000  C
  C229     1.0000 0.30348  0.86741  0.59183  Biso   1.000  C
  O32      1.0000 0.11138  0.81170  0.64444  Biso   1.000  O
  H322     1.0000 0.73557  0.18469  0.65310  Biso   1.000  H
  C230     1.0000 0.66287  0.13178  0.69522  Biso   1.000  C
  H323     1.0000 0.60988  0.08912  0.74581  Biso   1.000  H
  C231     1.0000 0.64503  0.08198  0.82699  Biso   1.000  C
  H324     1.0000 0.02653  0.19949  0.84659  Biso   1.000  H
  C232     1.0000 0.03088  0.24319  0.90455  Biso   1.000  C
  H325     1.0000 0.96013  0.16681  0.88070  Biso   1.000  H
  C233     1.0000 0.71046  0.18428  0.90921  Biso   1.000  C
  H326     1.0000 0.37303  0.95318  0.82239  Biso   1.000  H
  C234     1.0000 0.26488  0.88858  0.81754  Biso   1.000  C
  H327     1.0000 0.16332  0.82732  0.79990  Biso   1.000  H
  C235     1.0000 0.07810  0.78881  0.73176  Biso   1.000  C
  H328     1.0000 0.28781  0.82479  0.59460  Biso   1.000  H
  H329     1.0000 0.37131  0.87391  0.60191  Biso   1.000  H
  C236     1.0000 0.29523  0.88610  0.54716  Biso   1.000  C
  C237     1.0000 0.02091  0.84159  0.63146  Biso   1.000  C
  H330     1.0000 0.62307  0.11151  0.67581  Biso   1.000  H
  O33      1.0000 0.69337  0.02776  0.81367  Biso   1.000  O
  H331     1.0000 0.63918  0.08302  0.85748  Biso   1.000  H
  H332     1.0000 0.57840  0.08478  0.81489  Biso   1.000  H
  H333     1.0000 0.08372  0.21909  0.91721  Biso   1.000  H
  C238     1.0000 0.07488  0.30170  0.88987  Biso   1.000  C
  H334     1.0000 0.98179  0.25159  0.92629  Biso   1.000  H
  H335     1.0000 0.64383  0.16699  0.91091  Biso   1.000  H
  H336     1.0000 0.70462  0.22469  0.89771  Biso   1.000  H
  C239     1.0000 0.75483  0.18749  0.95212  Biso   1.000  C
  H337     1.0000 0.74621  0.22112  0.91620  Biso   1.000  H
  H338     1.0000 0.64938  0.19552  0.89459  Biso   1.000  H
  C240     1.0000 0.68513  0.15291  0.94730  Biso   1.000  C
  H339     1.0000 0.25738  0.88208  0.84630  Biso   1.000  H
  O34      1.0000 0.00000  0.82493  0.75000  Biso   1.000  O
  H340     1.0000 0.05202  0.76489  0.70861  Biso   1.000  H
  H341     1.0000 0.10621  0.76168  0.75261  Biso   1.000  H
  H342     1.0000 0.34890  0.86768  0.53100  Biso   1.000  H
  H343     1.0000 0.30243  0.92962  0.54521  Biso   1.000  H
  C241     1.0000 0.19397  0.86741  0.52829  Biso   1.000  C
  H344     1.0000 0.99153  0.86159  0.65571  Biso   1.000  H
  C242     1.0000 0.94221  0.79920  0.61199  Biso   1.000  C
  H345     1.0000 0.97377  0.84529  0.65461  Biso   1.000  H
  C243     1.0000 0.98269  0.79978  0.59841  Biso   1.000  C
  H346     1.0000 0.03778  0.87251  0.61101  Biso   1.000  H
  H347     1.0000 0.03470  0.88140  0.61999  Biso   1.000  H
  C244     1.0000 0.64503  0.97449  0.82907  Biso   1.000  C
  H348     1.0000 0.02368  0.32450  0.87519  Biso   1.000  H
  H349     1.0000 0.12832  0.29331  0.86999  Biso   1.000  H
  C245     1.0000 0.11692  0.34021  0.92591  Biso   1.000  C
  H350     1.0000 0.80850  0.21701  0.95149  Biso   1.000  H
  H351     1.0000 0.70379  0.20270  0.97121  Biso   1.000  H
  C246     1.0000 0.79553  0.13078  0.97029  Biso   1.000  C
  C247     1.0000 0.77799  0.13282  0.97099  Biso   1.000  C
  C248     1.0000 0.83203  0.18961  0.98671  Biso   1.000  C
  H352     1.0000 0.64488  0.11778  0.94040  Biso   1.000  H
  H353     1.0000 0.64511  0.17918  0.96500  Biso   1.000  H
  C249     1.0000 0.92190  0.78881  0.76824  Biso   1.000  C
  H354     1.0000 0.18768  0.82398  0.53150  Biso   1.000  H
  H355     1.0000 0.14173  0.88569  0.54530  Biso   1.000  H
  C250     1.0000 0.17389  0.88208  0.48478  Biso   1.000  C
  H356     1.0000 0.93329  0.76439  0.63020  Biso   1.000  H
  H357     1.0000 0.87843  0.82019  0.61019  Biso   1.000  H
  C251     1.0000 0.97189  0.77870  0.56959  Biso   1.000  C
  H358     1.0000 0.92902  0.81960  0.58301  Biso   1.000  H
  C252     1.0000 0.94521  0.74249  0.61571  Biso   1.000  C
  H359     1.0000 0.03620  0.79139  0.57850  Biso   1.000  H
  H360     1.0000 0.57720  0.97178  0.81820  Biso   1.000  H
  H361     1.0000 0.64241  0.97481  0.85960  Biso   1.000  H
  C253     1.0000 0.70769  0.92199  0.81351  Biso   1.000  C
  H362     1.0000 0.06431  0.34928  0.94560  Biso   1.000  H
  H363     1.0000 0.14353  0.37718  0.91469  Biso   1.000  H
  H364     1.0000 0.16917  0.31841  0.94011  Biso   1.000  H
  H365     1.0000 0.85347  0.11828  0.95410  Biso   1.000  H
  H366     1.0000 0.81719  0.13841  0.99890  Biso   1.000  H
  C254     1.0000 0.72148  0.08230  0.97029  Biso   1.000  C
  H367     1.0000 0.75941  0.10781  0.99531  Biso   1.000  H
  H368     1.0000 0.82207  0.10961  0.95331  Biso   1.000  H
  H369     1.0000 0.78399  0.21638  0.99950  Biso   1.000  H
  H370     1.0000 0.86276  0.20952  0.96321  Biso   1.000  H
  H371     1.0000 0.88203  0.17882  0.00699  Biso   1.000  H
  C255     1.0000 0.84320  0.83238  0.78383  Biso   1.000  C
  H372     1.0000 0.94798  0.76489  0.79139  Biso   1.000  H
  H373     1.0000 0.89379  0.76168  0.74739  Biso   1.000  H
  H374     1.0000 0.21541  0.85770  0.46680  Biso   1.000  H
  H375     1.0000 0.18828  0.92402  0.47990  Biso   1.000  H
  H376     1.0000 0.10463  0.87432  0.47861  Biso   1.000  H
  H377     1.0000 0.97999  0.81269  0.55069  Biso   1.000  H
  C256     1.0000 0.87813  0.73482  0.55440  Biso   1.000  C
  H378     1.0000 0.03433  0.75631  0.57069  Biso   1.000  H
  H379     1.0000 0.89717  0.75112  0.63788  Biso   1.000  H
  C257     1.0000 0.89492  0.70241  0.58219  Biso   1.000  C
  H380     1.0000 0.00067  0.72060  0.62821  Biso   1.000  H
  C258     1.0000 0.71399  0.90962  0.76928  Biso   1.000  C
  C259     1.0000 0.76623  0.88953  0.84110  Biso   1.000  C
  H381     1.0000 0.73197  0.05688  0.99439  Biso   1.000  H
  H382     1.0000 0.72860  0.05878  0.94500  Biso   1.000  H
  H383     1.0000 0.65537  0.09932  0.97140  Biso   1.000  H
  C260     1.0000 0.78332  0.86511  0.75447  Biso   1.000  C
  C261     1.0000 0.83353  0.84407  0.82614  Biso   1.000  C
  H384     1.0000 0.88637  0.72462  0.52520  Biso   1.000  H
  H385     1.0000 0.81577  0.75590  0.55809  Biso   1.000  H
  H386     1.0000 0.87768  0.69861  0.57101  Biso   1.000  H
  H387     1.0000 0.93247  0.70430  0.55651  Biso   1.000  H
  H388     1.0000 0.82784  0.71640  0.57731  Biso   1.000  H
  H389     1.0000 0.89289  0.66141  0.59211  Biso   1.000  H
  C262     1.0000 0.65582  0.94163  0.73926  Biso   1.000  C
  O35      1.0000 0.76683  0.90335  0.88354  Biso   1.000  O
  C263     1.0000 0.79179  0.85590  0.71024  Biso   1.000  C
  O36      1.0000 0.88862  0.81170  0.85556  Biso   1.000  O
  H390     1.0000 0.60958  0.97011  0.74861  Biso   1.000  H
  C264     1.0000 0.66579  0.93161  0.69679  Biso   1.000  C
  C265     1.0000 0.69652  0.86741  0.90817  Biso   1.000  C
  C266     1.0000 0.73512  0.88858  0.68246  Biso   1.000  C
  H391     1.0000 0.83668  0.82732  0.70010  Biso   1.000  H
  C267     1.0000 0.97909  0.84159  0.86854  Biso   1.000  C
  H392     1.0000 0.62697  0.95318  0.67761  Biso   1.000  H
  H393     1.0000 0.71219  0.82479  0.90540  Biso   1.000  H
  H394     1.0000 0.62869  0.87391  0.89809  Biso   1.000  H
  C268     1.0000 0.70477  0.88610  0.95284  Biso   1.000  C
  H395     1.0000 0.74262  0.88208  0.65370  Biso   1.000  H
  H396     1.0000 0.96222  0.87251  0.88899  Biso   1.000  H
  H397     1.0000 0.96530  0.88140  0.88001  Biso   1.000  H
  H398     1.0000 0.00847  0.86159  0.84429  Biso   1.000  H
  C269     1.0000 0.05779  0.79920  0.88801  Biso   1.000  C
  H399     1.0000 0.02623  0.84529  0.84539  Biso   1.000  H
  C270     1.0000 0.01731  0.79978  0.90159  Biso   1.000  C
  H400     1.0000 0.65110  0.86768  0.96900  Biso   1.000  H
  H401     1.0000 0.69757  0.92962  0.95479  Biso   1.000  H
  C271     1.0000 0.80603  0.86741  0.97171  Biso   1.000  C
  H402     1.0000 0.06671  0.76439  0.86980  Biso   1.000  H
  H403     1.0000 0.12157  0.82019  0.88981  Biso   1.000  H
  C272     1.0000 0.02811  0.77870  0.93041  Biso   1.000  C
  H404     1.0000 0.07098  0.81960  0.91699  Biso   1.000  H
  C273     1.0000 0.05479  0.74249  0.88429  Biso   1.000  C
  H405     1.0000 0.96380  0.79139  0.92150  Biso   1.000  H
  H406     1.0000 0.81232  0.82398  0.96850  Biso   1.000  H
  H407     1.0000 0.85827  0.88569  0.95470  Biso   1.000  H
  C274     1.0000 0.82611  0.88208  0.01522  Biso   1.000  C
  H408     1.0000 0.96567  0.75631  0.92931  Biso   1.000  H
  H409     1.0000 0.02001  0.81269  0.94931  Biso   1.000  H
  C275     1.0000 0.12187  0.73482  0.94560  Biso   1.000  C
  H410     1.0000 0.99933  0.72060  0.87179  Biso   1.000  H
  H411     1.0000 0.10283  0.75112  0.86212  Biso   1.000  H
  C276     1.0000 0.10508  0.70241  0.91781  Biso   1.000  C
  H412     1.0000 0.78459  0.85770  0.03320  Biso   1.000  H
  H413     1.0000 0.81172  0.92402  0.02010  Biso   1.000  H
  H414     1.0000 0.89537  0.87432  0.02139  Biso   1.000  H
  H415     1.0000 0.11363  0.72462  0.97480  Biso   1.000  H
  H416     1.0000 0.18423  0.75590  0.94191  Biso   1.000  H
  H417     1.0000 0.12232  0.69861  0.92899  Biso   1.000  H
  H418     1.0000 0.06753  0.70430  0.94349  Biso   1.000  H
  H419     1.0000 0.17216  0.71640  0.92269  Biso   1.000  H
  H420     1.0000 0.10711  0.66141  0.90789  Biso   1.000  H
  C277     1.0000 0.23512  0.61144  0.31754  Biso   1.000  C
  C278     1.0000 0.16579  0.56837  0.30321  Biso   1.000  C
  C279     1.0000 0.29179  0.64408  0.28976  Biso   1.000  C
  H421     1.0000 0.24262  0.61790  0.34630  Biso   1.000  H
  C280     1.0000 0.15582  0.55835  0.26074  Biso   1.000  C
  H422     1.0000 0.12697  0.54679  0.32239  Biso   1.000  H
  C281     1.0000 0.28332  0.63491  0.24553  Biso   1.000  C
  H423     1.0000 0.33668  0.67270  0.29990  Biso   1.000  H
  C282     1.0000 0.21399  0.59036  0.23072  Biso   1.000  C
  H424     1.0000 0.10958  0.52991  0.25139  Biso   1.000  H
  C283     1.0000 0.34320  0.66764  0.21617  Biso   1.000  C
  C284     1.0000 0.20769  0.57803  0.18649  Biso   1.000  C
  C285     1.0000 0.33353  0.65595  0.17386  Biso   1.000  C
  C286     1.0000 0.42190  0.71121  0.23176  Biso   1.000  C
  C287     1.0000 0.14503  0.52553  0.17093  Biso   1.000  C
  C288     1.0000 0.26623  0.61049  0.15890  Biso   1.000  C
  O37      1.0000 0.38862  0.68828  0.14444  Biso   1.000  O
  O38      1.0000 0.50000  0.67509  0.25000  Biso   1.000  O
  H425     1.0000 0.44798  0.73509  0.20861  Biso   1.000  H
  H426     1.0000 0.39379  0.73830  0.25261  Biso   1.000  H
  O39      1.0000 0.19337  0.47226  0.18633  Biso   1.000  O
  H427     1.0000 0.07720  0.52819  0.18180  Biso   1.000  H
  H428     1.0000 0.14241  0.52521  0.14040  Biso   1.000  H
  O40      1.0000 0.26683  0.59668  0.11646  Biso   1.000  O
  C289     1.0000 0.47909  0.65839  0.13146  Biso   1.000  C
  C290     1.0000 0.57810  0.71121  0.26824  Biso   1.000  C
  C291     1.0000 0.14503  0.41799  0.17301  Biso   1.000  C
  C292     1.0000 0.19652  0.63261  0.09183  Biso   1.000  C
  H429     1.0000 0.46222  0.62751  0.11101  Biso   1.000  H
  H430     1.0000 0.50847  0.63839  0.15571  Biso   1.000  H
  C293     1.0000 0.55779  0.70078  0.11199  Biso   1.000  C
  H431     1.0000 0.46530  0.61862  0.11999  Biso   1.000  H
  H432     1.0000 0.52623  0.65469  0.15461  Biso   1.000  H
  C294     1.0000 0.51731  0.70019  0.09841  Biso   1.000  C
  C295     1.0000 0.65680  0.66764  0.28383  Biso   1.000  C
  H433     1.0000 0.55202  0.73509  0.29139  Biso   1.000  H
  H434     1.0000 0.60621  0.73830  0.24739  Biso   1.000  H
  C296     1.0000 0.20949  0.36689  0.18822  Biso   1.000  C
  H435     1.0000 0.13918  0.41700  0.14252  Biso   1.000  H
  H436     1.0000 0.07840  0.41520  0.18511  Biso   1.000  H
  H437     1.0000 0.21219  0.67518  0.09460  Biso   1.000  H
  H438     1.0000 0.12869  0.62611  0.10191  Biso   1.000  H
  C297     1.0000 0.20477  0.61388  0.04716  Biso   1.000  C
  H439     1.0000 0.56671  0.73559  0.13020  Biso   1.000  H
  H440     1.0000 0.62157  0.67979  0.11019  Biso   1.000  H
  C298     1.0000 0.52811  0.72132  0.06959  Biso   1.000  C
  H441     1.0000 0.57098  0.68042  0.08301  Biso   1.000  H
  C299     1.0000 0.55479  0.75748  0.11571  Biso   1.000  C
  H442     1.0000 0.46380  0.70859  0.07850  Biso   1.000  H
  C300     1.0000 0.71668  0.63491  0.25447  Biso   1.000  C
  C301     1.0000 0.66647  0.65595  0.32614  Biso   1.000  C
  C302     1.0000 0.21489  0.35222  0.23214  Biso   1.000  C
  C303     1.0000 0.26982  0.33597  0.16019  Biso   1.000  C
  H443     1.0000 0.15110  0.63230  0.03100  Biso   1.000  H
  H444     1.0000 0.19757  0.57040  0.04521  Biso   1.000  H
  C304     1.0000 0.30603  0.63261  0.02829  Biso   1.000  C
  H445     1.0000 0.46567  0.74371  0.07069  Biso   1.000  H
  H446     1.0000 0.52001  0.68728  0.05069  Biso   1.000  H
  C305     1.0000 0.62187  0.76520  0.05440  Biso   1.000  C
  H447     1.0000 0.60283  0.74891  0.13788  Biso   1.000  H
  H448     1.0000 0.49933  0.77938  0.12821  Biso   1.000  H
  C306     1.0000 0.60508  0.79762  0.08219  Biso   1.000  C
  C307     1.0000 0.78601  0.59036  0.26928  Biso   1.000  C
  C308     1.0000 0.70821  0.64408  0.21024  Biso   1.000  C
  C309     1.0000 0.73377  0.61049  0.34110  Biso   1.000  C
  O41      1.0000 0.61138  0.68828  0.35556  Biso   1.000  O
  C310     1.0000 0.28339  0.30649  0.24619  Biso   1.000  C
  C311     1.0000 0.15552  0.38161  0.26285  Biso   1.000  C
  C312     1.0000 0.33661  0.29019  0.17408  Biso   1.000  C
  O42      1.0000 0.27200  0.35217  0.11838  Biso   1.000  O
  H449     1.0000 0.31232  0.67600  0.03150  Biso   1.000  H
  H450     1.0000 0.35827  0.61428  0.04530  Biso   1.000  H
  C313     1.0000 0.32611  0.61790  0.98478  Biso   1.000  C
  H451     1.0000 0.61363  0.77541  0.02520  Biso   1.000  H
  H452     1.0000 0.68423  0.74412  0.05809  Biso   1.000  H
  H453     1.0000 0.62232  0.80141  0.07101  Biso   1.000  H
  H454     1.0000 0.56753  0.79572  0.05651  Biso   1.000  H
  H455     1.0000 0.67216  0.78362  0.07731  Biso   1.000  H
  H456     1.0000 0.60711  0.83861  0.09211  Biso   1.000  H
  C314     1.0000 0.79231  0.57803  0.31351  Biso   1.000  C
  C315     1.0000 0.84418  0.55835  0.23926  Biso   1.000  C
  C316     1.0000 0.76488  0.61144  0.18246  Biso   1.000  C
  H457     1.0000 0.66332  0.67270  0.20010  Biso   1.000  H
  O43      1.0000 0.73317  0.59668  0.38354  Biso   1.000  O
  C317     1.0000 0.52091  0.65839  0.36854  Biso   1.000  C
  C318     1.0000 0.34463  0.27534  0.21620  Biso   1.000  C
  C319     1.0000 0.28931  0.29371  0.28988  Biso   1.000  C
  C320     1.0000 0.16287  0.36820  0.30478  Biso   1.000  C
  H458     1.0000 0.10988  0.41091  0.25419  Biso   1.000  H
  O44      1.0000 0.39342  0.26026  0.14431  Biso   1.000  O
  C321     1.0000 0.21046  0.31570  0.09079  Biso   1.000  C
  H459     1.0000 0.28459  0.64232  0.96680  Biso   1.000  H
  H460     1.0000 0.31172  0.57600  0.97990  Biso   1.000  H
  H461     1.0000 0.39537  0.62571  0.97861  Biso   1.000  H
  C322     1.0000 0.85497  0.52553  0.32907  Biso   1.000  C
  H462     1.0000 0.89042  0.52991  0.24861  Biso   1.000  H
  C323     1.0000 0.83421  0.56837  0.19679  Biso   1.000  C
  H463     1.0000 0.75738  0.61790  0.15370  Biso   1.000  H
  C324     1.0000 0.80348  0.63261  0.40817  Biso   1.000  C
  H464     1.0000 0.53778  0.62751  0.38899  Biso   1.000  H
  H465     1.0000 0.49153  0.63839  0.34429  Biso   1.000  H
  C325     1.0000 0.44221  0.70078  0.38801  Biso   1.000  C
  H466     1.0000 0.53470  0.61862  0.38001  Biso   1.000  H
  H467     1.0000 0.47377  0.65469  0.34539  Biso   1.000  H
  C326     1.0000 0.48269  0.70019  0.40159  Biso   1.000  C
  C327     1.0000 0.42310  0.23150  0.23088  Biso   1.000  C
  H468     1.0000 0.33361  0.26432  0.29940  Biso   1.000  H
  C328     1.0000 0.23040  0.32414  0.31836  Biso   1.000  C
  H469     1.0000 0.12307  0.38852  0.32419  Biso   1.000  H
  C329     1.0000 0.48036  0.29412  0.13017  Biso   1.000  C
  H470     1.0000 0.14383  0.33299  0.08909  Biso   1.000  H
  H471     1.0000 0.20462  0.27529  0.10229  Biso   1.000  H
  C330     1.0000 0.25483  0.31249  0.04788  Biso   1.000  C
  H472     1.0000 0.24621  0.27890  0.08380  Biso   1.000  H
  H473     1.0000 0.14938  0.30450  0.10541  Biso   1.000  H
  C331     1.0000 0.18513  0.34712  0.05270  Biso   1.000  C
  O45      1.0000 0.80663  0.47226  0.31367  Biso   1.000  O
  H474     1.0000 0.92280  0.52819  0.31820  Biso   1.000  H
  H475     1.0000 0.85759  0.52521  0.35960  Biso   1.000  H
  H476     1.0000 0.87303  0.54679  0.17761  Biso   1.000  H
  H477     1.0000 0.78781  0.67518  0.40540  Biso   1.000  H
  H478     1.0000 0.87131  0.62611  0.39809  Biso   1.000  H
  C332     1.0000 0.79523  0.61388  0.45284  Biso   1.000  C
  H479     1.0000 0.43329  0.73559  0.36980  Biso   1.000  H
  H480     1.0000 0.37843  0.67979  0.38981  Biso   1.000  H
  C333     1.0000 0.47189  0.72132  0.43041  Biso   1.000  C
  H481     1.0000 0.42902  0.68042  0.41699  Biso   1.000  H
  C334     1.0000 0.44521  0.75748  0.38429  Biso   1.000  C
  H482     1.0000 0.53620  0.70859  0.42150  Biso   1.000  H
  O46      1.0000 0.50000  0.26739  0.25000  Biso   1.000  O
  H483     1.0000 0.39499  0.20342  0.25120  Biso   1.000  H
  H484     1.0000 0.44978  0.20879  0.20731  Biso   1.000  H
  H485     1.0000 0.23557  0.31529  0.34690  Biso   1.000  H
  H486     1.0000 0.52653  0.30048  0.15341  Biso   1.000  H
  H487     1.0000 0.46013  0.33321  0.11930  Biso   1.000  H
  C335     1.0000 0.53088  0.25678  0.09545  Biso   1.000  C
  H488     1.0000 0.30850  0.28301  0.04851  Biso   1.000  H
  H489     1.0000 0.20379  0.29728  0.02879  Biso   1.000  H
  C336     1.0000 0.29553  0.36919  0.02971  Biso   1.000  C
  C337     1.0000 0.27799  0.36721  0.02901  Biso   1.000  C
  C338     1.0000 0.33203  0.31041  0.01329  Biso   1.000  C
  H490     1.0000 0.14488  0.38219  0.05960  Biso   1.000  H
  H491     1.0000 0.14511  0.32080  0.03500  Biso   1.000  H
  C339     1.0000 0.85497  0.41799  0.32699  Biso   1.000  C
  H492     1.0000 0.84890  0.63230  0.46900  Biso   1.000  H
  H493     1.0000 0.80243  0.57040  0.45479  Biso   1.000  H
  C340     1.0000 0.69397  0.63261  0.47171  Biso   1.000  C
  H494     1.0000 0.53433  0.74371  0.42931  Biso   1.000  H
  H495     1.0000 0.47999  0.68728  0.44931  Biso   1.000  H
  C341     1.0000 0.37813  0.76520  0.44560  Biso   1.000  C
  H496     1.0000 0.39717  0.74891  0.36212  Biso   1.000  H
  H497     1.0000 0.50067  0.77938  0.37179  Biso   1.000  H
  C342     1.0000 0.39492  0.79762  0.41781  Biso   1.000  C
  C343     1.0000 0.57690  0.23150  0.26912  Biso   1.000  C
  H498     1.0000 0.48179  0.24839  0.07371  Biso   1.000  H
  H499     1.0000 0.58372  0.28089  0.08279  Biso   1.000  H
  C344     1.0000 0.57488  0.19832  0.11013  Biso   1.000  C
  H500     1.0000 0.35347  0.38170  0.04590  Biso   1.000  H
  H501     1.0000 0.31719  0.36161  0.00110  Biso   1.000  H
  C345     1.0000 0.22148  0.41768  0.02971  Biso   1.000  C
  H502     1.0000 0.25941  0.39222  0.00469  Biso   1.000  H
  H503     1.0000 0.32207  0.39041  0.04669  Biso   1.000  H
  H504     1.0000 0.28399  0.28360  0.00050  Biso   1.000  H
  H505     1.0000 0.36276  0.29051  0.03679  Biso   1.000  H
  H506     1.0000 0.38203  0.32120  0.99301  Biso   1.000  H
  C346     1.0000 0.79051  0.36689  0.31178  Biso   1.000  C
  H507     1.0000 0.86082  0.41700  0.35748  Biso   1.000  H
  H508     1.0000 0.92160  0.41520  0.31489  Biso   1.000  H
  H509     1.0000 0.68768  0.67600  0.46850  Biso   1.000  H
  H510     1.0000 0.64173  0.61428  0.45470  Biso   1.000  H
  C347     1.0000 0.67389  0.61790  0.51522  Biso   1.000  C
  H511     1.0000 0.38637  0.77541  0.47480  Biso   1.000  H
  H512     1.0000 0.31577  0.74412  0.44191  Biso   1.000  H
  H513     1.0000 0.37768  0.80141  0.42899  Biso   1.000  H
  H514     1.0000 0.43247  0.79572  0.44349  Biso   1.000  H
  H515     1.0000 0.32784  0.78362  0.42269  Biso   1.000  H
  H516     1.0000 0.39289  0.83861  0.40789  Biso   1.000  H
  H517     1.0000 0.60501  0.20342  0.24880  Biso   1.000  H
  H518     1.0000 0.55022  0.20879  0.29269  Biso   1.000  H
  C348     1.0000 0.65537  0.27534  0.28380  Biso   1.000  C
  H519     1.0000 0.52368  0.17552  0.12481  Biso   1.000  H
  H520     1.0000 0.62832  0.20672  0.13001  Biso   1.000  H
  C349     1.0000 0.61692  0.15981  0.07409  Biso   1.000  C
  H521     1.0000 0.23197  0.44310  0.00561  Biso   1.000  H
  H522     1.0000 0.22860  0.44120  0.05500  Biso   1.000  H
  H523     1.0000 0.15537  0.40070  0.02860  Biso   1.000  H
  C350     1.0000 0.78511  0.35222  0.26786  Biso   1.000  C
  C351     1.0000 0.73018  0.33597  0.33981  Biso   1.000  C
  H524     1.0000 0.71541  0.64232  0.53320  Biso   1.000  H
  H525     1.0000 0.68828  0.57600  0.52010  Biso   1.000  H
  H526     1.0000 0.60463  0.62571  0.52139  Biso   1.000  H
  C352     1.0000 0.71661  0.30649  0.25381  Biso   1.000  C
  C353     1.0000 0.66339  0.29019  0.32592  Biso   1.000  C
  H527     1.0000 0.56431  0.15069  0.05440  Biso   1.000  H
  H528     1.0000 0.64353  0.12279  0.08531  Biso   1.000  H
  H529     1.0000 0.66917  0.18162  0.05989  Biso   1.000  H
  C354     1.0000 0.84448  0.38161  0.23715  Biso   1.000  C
  O47      1.0000 0.72800  0.35217  0.38162  Biso   1.000  O
  C355     1.0000 0.71069  0.29371  0.21012  Biso   1.000  C
  O48      1.0000 0.60658  0.26026  0.35569  Biso   1.000  O
  C356     1.0000 0.83713  0.36820  0.19522  Biso   1.000  C
  H530     1.0000 0.89012  0.41091  0.24581  Biso   1.000  H
  C357     1.0000 0.78954  0.31570  0.40921  Biso   1.000  C
  H531     1.0000 0.66639  0.26432  0.20060  Biso   1.000  H
  C358     1.0000 0.76960  0.32414  0.18164  Biso   1.000  C
  C359     1.0000 0.51964  0.29412  0.36983  Biso   1.000  C
  H532     1.0000 0.87693  0.38852  0.17581  Biso   1.000  H
  H533     1.0000 0.85617  0.33299  0.41091  Biso   1.000  H
  H534     1.0000 0.79538  0.27529  0.39771  Biso   1.000  H
  C360     1.0000 0.74517  0.31249  0.45212  Biso   1.000  C
  H535     1.0000 0.75379  0.27890  0.41620  Biso   1.000  H
  H536     1.0000 0.85062  0.30450  0.39459  Biso   1.000  H
  C361     1.0000 0.81487  0.34712  0.44730  Biso   1.000  C
  H537     1.0000 0.76443  0.31529  0.15310  Biso   1.000  H
  H538     1.0000 0.47347  0.30048  0.34659  Biso   1.000  H
  H539     1.0000 0.53987  0.33321  0.38070  Biso   1.000  H
  C362     1.0000 0.46912  0.25678  0.40455  Biso   1.000  C
  H540     1.0000 0.69150  0.28301  0.45149  Biso   1.000  H
  H541     1.0000 0.79621  0.29728  0.47121  Biso   1.000  H
  C363     1.0000 0.70447  0.36919  0.47029  Biso   1.000  C
  C364     1.0000 0.72201  0.36721  0.47099  Biso   1.000  C
  C365     1.0000 0.66797  0.31041  0.48671  Biso   1.000  C
  H542     1.0000 0.85512  0.38219  0.44040  Biso   1.000  H
  H543     1.0000 0.85489  0.32080  0.46500  Biso   1.000  H
  H544     1.0000 0.51821  0.24839  0.42629  Biso   1.000  H
  H545     1.0000 0.41628  0.28089  0.41721  Biso   1.000  H
  C366     1.0000 0.42512  0.19832  0.38987  Biso   1.000  C
  H546     1.0000 0.64653  0.38170  0.45410  Biso   1.000  H
  H547     1.0000 0.68281  0.36161  0.49890  Biso   1.000  H
  C367     1.0000 0.77852  0.41768  0.47029  Biso   1.000  C
  H548     1.0000 0.74059  0.39222  0.49531  Biso   1.000  H
  H549     1.0000 0.67793  0.39041  0.45331  Biso   1.000  H
  H550     1.0000 0.61797  0.32120  0.50699  Biso   1.000  H
  H551     1.0000 0.71601  0.28360  0.49950  Biso   1.000  H
  H552     1.0000 0.63724  0.29051  0.46321  Biso   1.000  H
  H553     1.0000 0.47632  0.17552  0.37519  Biso   1.000  H
  H554     1.0000 0.37168  0.20672  0.36999  Biso   1.000  H
  C368     1.0000 0.38308  0.15981  0.42591  Biso   1.000  C
  H555     1.0000 0.76803  0.44310  0.49439  Biso   1.000  H
  H556     1.0000 0.77140  0.44120  0.44500  Biso   1.000  H
  H557     1.0000 0.84463  0.40070  0.47140  Biso   1.000  H
  H558     1.0000 0.43569  0.15069  0.44560  Biso   1.000  H
  H559     1.0000 0.35647  0.12279  0.41469  Biso   1.000  H
  H560     1.0000 0.33083  0.18162  0.44011  Biso   1.000  H
