data_image0
_cell_length_a       31.361
_cell_length_b       18.888
_cell_length_c       17.096
_cell_angle_alpha    90
_cell_angle_beta     90
_cell_angle_gamma    90

_symmetry_space_group_name_H-M    "P 1"
_symmetry_int_tables_number       1

loop_
  _symmetry_equiv_pos_as_xyz
  'x, y, z'

loop_
  _atom_site_label
  _atom_site_occupancy
  _atom_site_fract_x
  _atom_site_fract_y
  _atom_site_fract_z
  _atom_site_thermal_displace_type
  _atom_site_B_iso_or_equiv
  _atom_site_type_symbol
  C1       1.0000 0.16179  0.56999  0.53387  Biso   1.000  C
  H1       1.0000 0.16498  0.52420  0.56142  Biso   1.000  H
  C2       1.0000 0.20283  0.60562  0.52919  Biso   1.000  C
  H2       1.0000 0.15082  0.56057  0.48064  Biso   1.000  H
  O1       1.0000 0.13239  0.61489  0.57592  Biso   1.000  O
  H3       1.0000 0.15079  0.56057  0.48064  Biso   1.000  H
  H4       1.0000 0.19907  0.65062  0.50029  Biso   1.000  H
  C3       1.0000 0.22231  0.62108  0.60412  Biso   1.000  C
  H5       1.0000 0.22263  0.57566  0.49860  Biso   1.000  H
  H6       1.0000 0.22260  0.57566  0.49860  Biso   1.000  H
  C4       1.0000 0.09046  0.59429  0.57300  Biso   1.000  C
  C5       1.0000 0.26476  0.66529  0.59827  Biso   1.000  C
  H7       1.0000 0.20162  0.64761  0.63652  Biso   1.000  H
  H8       1.0000 0.22850  0.57587  0.63108  Biso   1.000  H
  C6       1.0000 0.06240  0.62976  0.52544  Biso   1.000  C
  C7       1.0000 0.07595  0.54045  0.62465  Biso   1.000  C
  C8       1.0000 0.07592  0.54045  0.62465  Biso   1.000  C
  H9       1.0000 0.27604  0.67366  0.65091  Biso   1.000  H
  H10      1.0000 0.25886  0.71077  0.57288  Biso   1.000  H
  H11      1.0000 0.28577  0.63892  0.56744  Biso   1.000  H
  C9       1.0000 0.01862  0.61176  0.52743  Biso   1.000  C
  C10      1.0000 0.07863  0.69028  0.47567  Biso   1.000  C
  C11      1.0000 0.07860  0.69028  0.47567  Biso   1.000  C
  O2       1.0000 0.10615  0.50593  0.66928  Biso   1.000  O
  C12      1.0000 0.03412  0.52266  0.62909  Biso   1.000  C
  C13      1.0000 0.98795  0.64650  0.47918  Biso   1.000  C
  C14      1.0000 0.00399  0.55787  0.57943  Biso   1.000  C
  C15      1.0000 0.00395  0.55787  0.57943  Biso   1.000  C
  H12      1.0000 0.06556  0.68880  0.42296  Biso   1.000  H
  H13      1.0000 0.11001  0.68769  0.46999  Biso   1.000  H
  O3       1.0000 0.06658  0.75355  0.51579  Biso   1.000  O
  H14      1.0000 0.10998  0.68769  0.46999  Biso   1.000  H
  C16      1.0000 0.11862  0.54468  0.73789  Biso   1.000  C
  C17      1.0000 0.11859  0.54468  0.73789  Biso   1.000  C
  C18      1.0000 0.01875  0.47035  0.68923  Biso   1.000  C
  C19      1.0000 0.01872  0.47035  0.68923  Biso   1.000  C
  H15      1.0000 0.99703  0.68303  0.44484  Biso   1.000  H
  C20      1.0000 0.94608  0.62844  0.48134  Biso   1.000  C
  H16      1.0000 0.99700  0.68303  0.44484  Biso   1.000  H
  C21      1.0000 0.95995  0.54145  0.58072  Biso   1.000  C
  C22      1.0000 0.08023  0.81644  0.47555  Biso   1.000  C
  H17      1.0000 0.12465  0.59488  0.72520  Biso   1.000  H
  H18      1.0000 0.09617  0.54273  0.77860  Biso   1.000  H
  C23      1.0000 0.15959  0.50572  0.76509  Biso   1.000  C
  H19      1.0000 0.13428  0.58794  0.72204  Biso   1.000  H
  H20      1.0000 0.09279  0.55961  0.76690  Biso   1.000  H
  C24      1.0000 0.14719  0.49952  0.79200  Biso   1.000  C
  O4       1.0000 0.00000  0.51255  0.75000  Biso   1.000  O
  H21      1.0000 0.04279  0.44208  0.70993  Biso   1.000  H
  H22      1.0000 0.99735  0.43784  0.66630  Biso   1.000  H
  H23      1.0000 0.92634  0.65158  0.44782  Biso   1.000  H
  C25      1.0000 0.93173  0.57544  0.53311  Biso   1.000  C
  H24      1.0000 0.94984  0.50604  0.61552  Biso   1.000  H
  H25      1.0000 0.11176  0.81883  0.47327  Biso   1.000  H
  H26      1.0000 0.06891  0.81729  0.42150  Biso   1.000  H
  C26      1.0000 0.06259  0.87728  0.52252  Biso   1.000  C
  H27      1.0000 0.15204  0.46029  0.79042  Biso   1.000  H
  C27      1.0000 0.18421  0.55591  0.82598  Biso   1.000  C
  H28      1.0000 0.17812  0.49550  0.71953  Biso   1.000  H
  C28      1.0000 0.18418  0.55591  0.82598  Biso   1.000  C
  H29      1.0000 0.17681  0.50154  0.77199  Biso   1.000  H
  H30      1.0000 0.14713  0.52107  0.84476  Biso   1.000  H
  C29      1.0000 0.13380  0.41878  0.80001  Biso   1.000  C
  C30      1.0000 0.98125  0.47035  0.81072  Biso   1.000  C
  H31      1.0000 0.90233  0.56337  0.53480  Biso   1.000  H
  C31      1.0000 0.08957  0.91905  0.56604  Biso   1.000  C
  C32      1.0000 0.01792  0.88887  0.52656  Biso   1.000  C
  H32      1.0000 0.17222  0.54866  0.87898  Biso   1.000  H
  C33      1.0000 0.22139  0.54442  0.82750  Biso   1.000  C
  H33      1.0000 0.17946  0.60605  0.81136  Biso   1.000  H
  Cl1      1.0000 0.14869  0.31840  0.80030  Biso   1.000  Cl
  H34      1.0000 0.10641  0.42006  0.82879  Biso   1.000  H
  H35      1.0000 0.15481  0.39856  0.83698  Biso   1.000  H
  C34      1.0000 0.12879  0.37251  0.75070  Biso   1.000  C
  C35      1.0000 0.96585  0.52266  0.87091  Biso   1.000  C
  H36      1.0000 0.95718  0.44208  0.79007  Biso   1.000  H
  H37      1.0000 0.00265  0.43784  0.83365  Biso   1.000  H
  H38      1.0000 0.00261  0.43784  0.83365  Biso   1.000  H
  O5       1.0000 0.13306  0.90719  0.56662  Biso   1.000  O
  O6       1.0000 0.13303  0.90719  0.56662  Biso   1.000  O
  C36      1.0000 0.07299  0.97295  0.61593  Biso   1.000  C
  C37      1.0000 0.00131  0.94139  0.57867  Biso   1.000  C
  C38      1.0000 0.98878  0.84869  0.48193  Biso   1.000  C
  C39      1.0000 0.98874  0.84869  0.48193  Biso   1.000  C
  H39      1.0000 0.23351  0.55247  0.77539  Biso   1.000  H
  H40      1.0000 0.22627  0.49508  0.84295  Biso   1.000  H
  H41      1.0000 0.23510  0.57608  0.86523  Biso   1.000  H
  C40      1.0000 0.11910  0.32121  0.71011  Biso   1.000  C
  H42      1.0000 0.11642  0.37098  0.69285  Biso   1.000  H
  H43      1.0000 0.12037  0.32830  0.77644  Biso   1.000  H
  H44      1.0000 0.15554  0.36515  0.72222  Biso   1.000  H
  H45      1.0000 0.10644  0.38697  0.71391  Biso   1.000  H
  C41      1.0000 0.92405  0.54045  0.87529  Biso   1.000  C
  C42      1.0000 0.99601  0.55787  0.92057  Biso   1.000  C
  C43      1.0000 0.15637  0.95622  0.51790  Biso   1.000  C
  C44      1.0000 0.03048  0.98322  0.62447  Biso   1.000  C
  O7       1.0000 0.10165  0.01541  0.65489  Biso   1.000  O
  C45      1.0000 0.95673  0.94907  0.58528  Biso   1.000  C
  C46      1.0000 0.94598  0.85737  0.48894  Biso   1.000  C
  H46      1.0000 0.99939  0.81464  0.44595  Biso   1.000  H
  Cl2      1.0000 0.14336  0.27208  0.63588  Biso   1.000  Cl
  H47      1.0000 0.09008  0.30247  0.71923  Biso   1.000  H
  C47      1.0000 0.90951  0.59429  0.92700  Biso   1.000  C
  O8       1.0000 0.89382  0.50593  0.83066  Biso   1.000  O
  C48      1.0000 0.04005  0.54145  0.91928  Biso   1.000  C
  C49      1.0000 0.98138  0.61176  0.97257  Biso   1.000  C
  C50      1.0000 0.98135  0.61176  0.97257  Biso   1.000  C
  H48      1.0000 0.15191  0.94430  0.46210  Biso   1.000  H
  C51      1.0000 0.20254  0.95193  0.53720  Biso   1.000  C
  H49      1.0000 0.14595  0.00498  0.52685  Biso   1.000  H
  H50      1.0000 0.14591  0.00498  0.52685  Biso   1.000  H
  C52      1.0000 0.01365  0.03484  0.68460  Biso   1.000  C
  C53      1.0000 0.01362  0.03484  0.68460  Biso   1.000  C
  C54      1.0000 0.11645  0.98661  0.72777  Biso   1.000  C
  H51      1.0000 0.94531  0.98343  0.62009  Biso   1.000  H
  C55      1.0000 0.92953  0.90735  0.54194  Biso   1.000  C
  H52      1.0000 0.92711  0.82968  0.45806  Biso   1.000  H
  C56      1.0000 0.88138  0.54468  0.76211  Biso   1.000  C
  O9       1.0000 0.86757  0.61489  0.92408  Biso   1.000  O
  C57      1.0000 0.93757  0.62976  0.97456  Biso   1.000  C
  C58      1.0000 0.06827  0.57544  0.96689  Biso   1.000  C
  H53      1.0000 0.05013  0.50604  0.88448  Biso   1.000  H
  C59      1.0000 0.01205  0.64650  0.02077  Biso   1.000  C
  C60      1.0000 0.01202  0.64650  0.02077  Biso   1.000  C
  H54      1.0000 0.21798  0.98745  0.50538  Biso   1.000  H
  C61      1.0000 0.22305  0.88014  0.52369  Biso   1.000  C
  H55      1.0000 0.20637  0.96485  0.59283  Biso   1.000  H
  H56      1.0000 0.20634  0.96485  0.59283  Biso   1.000  H
  O10      1.0000 0.00000  0.99243  0.75000  Biso   1.000  O
  H57      1.0000 0.98941  0.06216  0.66302  Biso   1.000  H
  H58      1.0000 0.03626  0.06830  0.70081  Biso   1.000  H
  H59      1.0000 0.09266  0.97962  0.76503  Biso   1.000  H
  H60      1.0000 0.13144  0.94102  0.71988  Biso   1.000  H
  H61      1.0000 0.09560  0.95150  0.74737  Biso   1.000  H
  H62      1.0000 0.14394  0.96188  0.71935  Biso   1.000  H
  C62      1.0000 0.14971  0.04892  0.75872  Biso   1.000  C
  C63      1.0000 0.14968  0.04892  0.75872  Biso   1.000  C
  C64      1.0000 0.12229  0.04363  0.78749  Biso   1.000  C
  H63      1.0000 0.89956  0.91238  0.54791  Biso   1.000  H
  H64      1.0000 0.87535  0.59488  0.77480  Biso   1.000  H
  H65      1.0000 0.90383  0.54273  0.72140  Biso   1.000  H
  C65      1.0000 0.84041  0.50572  0.73491  Biso   1.000  C
  H66      1.0000 0.87532  0.59488  0.77480  Biso   1.000  H
  C66      1.0000 0.84037  0.50572  0.73491  Biso   1.000  C
  H67      1.0000 0.86572  0.58794  0.77790  Biso   1.000  H
  H68      1.0000 0.90718  0.55961  0.73304  Biso   1.000  H
  C67      1.0000 0.85278  0.49952  0.70800  Biso   1.000  C
  C68      1.0000 0.83821  0.56999  0.96607  Biso   1.000  C
  C69      1.0000 0.83817  0.56999  0.96607  Biso   1.000  C
  C70      1.0000 0.92137  0.69028  0.02433  Biso   1.000  C
  H69      1.0000 0.09767  0.56337  0.96520  Biso   1.000  H
  H70      1.0000 0.09764  0.56337  0.96520  Biso   1.000  H
  C71      1.0000 0.05392  0.62844  0.01860  Biso   1.000  C
  H71      1.0000 0.00297  0.68303  0.05516  Biso   1.000  H
  H72      1.0000 0.21871  0.86584  0.46853  Biso   1.000  H
  H73      1.0000 0.20889  0.84445  0.55732  Biso   1.000  H
  H74      1.0000 0.21868  0.86584  0.46853  Biso   1.000  H
  C72      1.0000 0.27110  0.88093  0.54176  Biso   1.000  C
  C73      1.0000 0.98635  0.03484  0.81534  Biso   1.000  C
  H75      1.0000 0.17136  0.05824  0.71789  Biso   1.000  H
  H76      1.0000 0.16460  0.03230  0.80627  Biso   1.000  H
  C74      1.0000 0.12659  0.11462  0.77620  Biso   1.000  C
  H77      1.0000 0.14786  0.02944  0.81774  Biso   1.000  H
  H78      1.0000 0.09786  0.03854  0.82364  Biso   1.000  H
  H79      1.0000 0.84796  0.46029  0.70958  Biso   1.000  H
  H80      1.0000 0.82185  0.49550  0.78042  Biso   1.000  H
  C75      1.0000 0.81579  0.55591  0.67402  Biso   1.000  C
  H81      1.0000 0.84793  0.46029  0.70958  Biso   1.000  H
  H82      1.0000 0.82319  0.50154  0.72795  Biso   1.000  H
  H83      1.0000 0.85287  0.52107  0.65524  Biso   1.000  H
  C76      1.0000 0.86620  0.41878  0.69999  Biso   1.000  C
  C77      1.0000 0.79717  0.60562  0.97081  Biso   1.000  C
  H84      1.0000 0.83499  0.52420  0.93858  Biso   1.000  H
  C78      1.0000 0.79714  0.60562  0.97081  Biso   1.000  C
  H85      1.0000 0.84918  0.56057  0.01936  Biso   1.000  H
  O11      1.0000 0.93339  0.75355  0.98421  Biso   1.000  O
  H86      1.0000 0.93444  0.68880  0.07704  Biso   1.000  H
  H87      1.0000 0.88999  0.68769  0.03001  Biso   1.000  H
  H88      1.0000 0.07363  0.65158  0.05212  Biso   1.000  H
  H89      1.0000 0.27553  0.89406  0.59663  Biso   1.000  H
  H90      1.0000 0.28532  0.91545  0.50784  Biso   1.000  H
  H91      1.0000 0.28309  0.83376  0.53235  Biso   1.000  H
  C79      1.0000 0.96952  0.98322  0.87547  Biso   1.000  C
  C80      1.0000 0.96948  0.98322  0.87547  Biso   1.000  C
  H92      1.0000 0.96371  0.06830  0.79913  Biso   1.000  H
  H93      1.0000 0.01059  0.06216  0.83692  Biso   1.000  H
  H94      1.0000 0.11176  0.13082  0.72836  Biso   1.000  H
  C81      1.0000 0.15519  0.17302  0.80516  Biso   1.000  C
  H95      1.0000 0.10465  0.10467  0.81639  Biso   1.000  H
  H96      1.0000 0.12927  0.11849  0.71865  Biso   1.000  H
  H97      1.0000 0.09776  0.13278  0.78837  Biso   1.000  H
  H98      1.0000 0.82778  0.54866  0.62102  Biso   1.000  H
  H99      1.0000 0.82051  0.60605  0.68858  Biso   1.000  H
  C82      1.0000 0.77861  0.54442  0.67250  Biso   1.000  C
  C83      1.0000 0.77858  0.54442  0.67250  Biso   1.000  C
  Cl3      1.0000 0.85131  0.31840  0.69970  Biso   1.000  Cl
  H100     1.0000 0.89359  0.42006  0.67115  Biso   1.000  H
  H101     1.0000 0.84519  0.39856  0.66302  Biso   1.000  H
  C84      1.0000 0.87118  0.37251  0.74930  Biso   1.000  C
  H102     1.0000 0.80090  0.65062  0.99971  Biso   1.000  H
  C85      1.0000 0.77765  0.62108  0.89588  Biso   1.000  C
  H103     1.0000 0.77737  0.57566  0.00140  Biso   1.000  H
  C86      1.0000 0.91974  0.81644  0.02445  Biso   1.000  C
  C87      1.0000 0.92698  0.97295  0.88401  Biso   1.000  C
  C88      1.0000 0.99869  0.94139  0.92133  Biso   1.000  C
  H104     1.0000 0.14674  0.21786  0.78100  Biso   1.000  H
  H105     1.0000 0.15274  0.17683  0.86213  Biso   1.000  H
  H106     1.0000 0.14671  0.21786  0.78100  Biso   1.000  H
  H107     1.0000 0.18482  0.16227  0.79118  Biso   1.000  H
  H108     1.0000 0.76487  0.57608  0.63471  Biso   1.000  H
  H109     1.0000 0.77373  0.49508  0.65700  Biso   1.000  H
  H110     1.0000 0.76646  0.55247  0.72461  Biso   1.000  H
  C89      1.0000 0.88090  0.32121  0.78989  Biso   1.000  C
  H111     1.0000 0.88358  0.37098  0.80715  Biso   1.000  H
  H112     1.0000 0.87963  0.32830  0.72356  Biso   1.000  H
  H113     1.0000 0.84446  0.36515  0.77778  Biso   1.000  H
  H114     1.0000 0.89356  0.38697  0.78603  Biso   1.000  H
  H115     1.0000 0.79835  0.64761  0.86342  Biso   1.000  H
  H116     1.0000 0.77147  0.57587  0.86886  Biso   1.000  H
  C90      1.0000 0.73524  0.66529  0.90167  Biso   1.000  C
  C91      1.0000 0.93737  0.87728  0.97748  Biso   1.000  C
  H117     1.0000 0.88824  0.81883  0.02667  Biso   1.000  H
  H118     1.0000 0.93109  0.81729  0.07844  Biso   1.000  H
  C92      1.0000 0.91040  0.91905  0.93390  Biso   1.000  C
  O12      1.0000 0.89831  0.01541  0.84505  Biso   1.000  O
  C93      1.0000 0.98205  0.88887  0.97339  Biso   1.000  C
  C94      1.0000 0.04324  0.94907  0.91466  Biso   1.000  C
  Cl4      1.0000 0.85664  0.27208  0.86406  Biso   1.000  Cl
  H119     1.0000 0.90992  0.30247  0.78071  Biso   1.000  H
  H120     1.0000 0.72392  0.67366  0.84903  Biso   1.000  H
  H121     1.0000 0.74111  0.71077  0.92712  Biso   1.000  H
  H122     1.0000 0.71420  0.63892  0.93256  Biso   1.000  H
  O13      1.0000 0.86694  0.90719  0.93338  Biso   1.000  O
  C95      1.0000 0.88352  0.98661  0.77217  Biso   1.000  C
  C96      1.0000 0.01122  0.84869  0.01807  Biso   1.000  C
  C97      1.0000 0.07044  0.90735  0.95800  Biso   1.000  C
  H123     1.0000 0.05469  0.98343  0.87985  Biso   1.000  H
  H124     1.0000 0.05465  0.98343  0.87985  Biso   1.000  H
  C98      1.0000 0.84363  0.95622  0.98210  Biso   1.000  C
  C99      1.0000 0.84360  0.95622  0.98210  Biso   1.000  C
  H125     1.0000 0.90734  0.97962  0.73497  Biso   1.000  H
  H126     1.0000 0.86856  0.94102  0.78007  Biso   1.000  H
  H127     1.0000 0.90440  0.95150  0.75257  Biso   1.000  H
  H128     1.0000 0.85606  0.96188  0.78065  Biso   1.000  H
  C100     1.0000 0.85029  0.04892  0.74128  Biso   1.000  C
  C101     1.0000 0.87768  0.04363  0.71251  Biso   1.000  C
  C102     1.0000 0.05402  0.85737  0.01106  Biso   1.000  C
  H129     1.0000 0.00061  0.81464  0.05399  Biso   1.000  H
  H130     1.0000 0.00057  0.81464  0.05399  Biso   1.000  H
  H131     1.0000 0.10041  0.91238  0.95209  Biso   1.000  H
  C103     1.0000 0.79742  0.95193  0.96280  Biso   1.000  C
  H132     1.0000 0.84806  0.94430  0.03790  Biso   1.000  H
  H133     1.0000 0.85405  0.00498  0.97315  Biso   1.000  H
  H134     1.0000 0.82864  0.05824  0.78211  Biso   1.000  H
  H135     1.0000 0.83540  0.03230  0.69373  Biso   1.000  H
  H136     1.0000 0.82861  0.05824  0.78211  Biso   1.000  H
  H137     1.0000 0.83537  0.03230  0.69373  Biso   1.000  H
  C104     1.0000 0.87338  0.11462  0.72380  Biso   1.000  C
  H138     1.0000 0.85214  0.02944  0.68226  Biso   1.000  H
  H139     1.0000 0.90211  0.03854  0.67636  Biso   1.000  H
  H140     1.0000 0.07286  0.82968  0.04194  Biso   1.000  H
  H141     1.0000 0.78202  0.98745  0.99456  Biso   1.000  H
  H142     1.0000 0.79363  0.96485  0.90717  Biso   1.000  H
  C105     1.0000 0.77695  0.88014  0.97631  Biso   1.000  C
  H143     1.0000 0.88824  0.13082  0.77158  Biso   1.000  H
  H144     1.0000 0.89532  0.10467  0.68361  Biso   1.000  H
  C106     1.0000 0.84481  0.17302  0.69478  Biso   1.000  C
  C107     1.0000 0.84478  0.17302  0.69478  Biso   1.000  C
  H145     1.0000 0.87073  0.11849  0.78129  Biso   1.000  H
  H146     1.0000 0.90224  0.13278  0.71163  Biso   1.000  H
  H147     1.0000 0.79108  0.84445  0.94268  Biso   1.000  H
  C108     1.0000 0.72887  0.88093  0.95818  Biso   1.000  C
  H148     1.0000 0.78129  0.86584  0.03147  Biso   1.000  H
  H149     1.0000 0.85326  0.21786  0.71900  Biso   1.000  H
  H150     1.0000 0.81515  0.16227  0.70882  Biso   1.000  H
  H151     1.0000 0.84726  0.17683  0.63787  Biso   1.000  H
  H152     1.0000 0.84723  0.17683  0.63787  Biso   1.000  H
  H153     1.0000 0.71688  0.83376  0.96759  Biso   1.000  H
  H154     1.0000 0.72443  0.89406  0.90337  Biso   1.000  H
  H155     1.0000 0.71465  0.91545  0.99216  Biso   1.000  H
  C109     1.0000 0.06827  0.42456  0.46689  Biso   1.000  C
  C110     1.0000 0.04005  0.45855  0.41928  Biso   1.000  C
  C111     1.0000 0.05392  0.37161  0.51860  Biso   1.000  C
  H156     1.0000 0.09767  0.43663  0.46520  Biso   1.000  H
  H157     1.0000 0.09764  0.43663  0.46520  Biso   1.000  H
  C112     1.0000 0.99601  0.44213  0.42057  Biso   1.000  C
  H158     1.0000 0.05013  0.49402  0.38448  Biso   1.000  H
  C113     1.0000 0.01205  0.35350  0.52082  Biso   1.000  C
  C114     1.0000 0.01202  0.35350  0.52082  Biso   1.000  C
  H159     1.0000 0.07363  0.34842  0.55212  Biso   1.000  H
  C115     1.0000 0.96585  0.47739  0.37091  Biso   1.000  C
  C116     1.0000 0.98138  0.38824  0.47257  Biso   1.000  C
  C117     1.0000 0.98135  0.38824  0.47257  Biso   1.000  C
  H160     1.0000 0.00297  0.31697  0.55516  Biso   1.000  H
  C118     1.0000 0.98125  0.52965  0.31072  Biso   1.000  C
  C119     1.0000 0.92405  0.45955  0.37529  Biso   1.000  C
  C120     1.0000 0.93757  0.37024  0.47456  Biso   1.000  C
  O14      1.0000 0.00000  0.48745  0.25000  Biso   1.000  O
  H161     1.0000 0.95718  0.55797  0.29007  Biso   1.000  H
  H162     1.0000 0.00265  0.56216  0.33365  Biso   1.000  H
  H163     1.0000 0.00261  0.56216  0.33365  Biso   1.000  H
  C121     1.0000 0.90951  0.40571  0.42700  Biso   1.000  C
  O15      1.0000 0.89382  0.49407  0.33066  Biso   1.000  O
  C122     1.0000 0.92137  0.30972  0.52433  Biso   1.000  C
  C123     1.0000 0.01875  0.52965  0.18923  Biso   1.000  C
  C124     1.0000 0.01872  0.52965  0.18923  Biso   1.000  C
  C125     1.0000 0.88138  0.45532  0.26211  Biso   1.000  C
  O16      1.0000 0.86757  0.38511  0.42408  Biso   1.000  O
  O17      1.0000 0.93339  0.24645  0.48421  Biso   1.000  O
  H164     1.0000 0.93444  0.31120  0.57704  Biso   1.000  H
  H165     1.0000 0.88999  0.31231  0.53001  Biso   1.000  H
  C126     1.0000 0.03412  0.47739  0.12909  Biso   1.000  C
  H166     1.0000 0.04279  0.55797  0.20993  Biso   1.000  H
  H167     1.0000 0.99735  0.56216  0.16635  Biso   1.000  H
  H168     1.0000 0.87535  0.40512  0.27480  Biso   1.000  H
  H169     1.0000 0.90383  0.45727  0.22140  Biso   1.000  H
  C127     1.0000 0.84041  0.49428  0.23491  Biso   1.000  C
  H170     1.0000 0.87532  0.40512  0.27480  Biso   1.000  H
  C128     1.0000 0.84037  0.49428  0.23491  Biso   1.000  C
  H171     1.0000 0.86572  0.41206  0.27790  Biso   1.000  H
  H172     1.0000 0.90718  0.44039  0.23304  Biso   1.000  H
  C129     1.0000 0.85278  0.50053  0.20800  Biso   1.000  C
  C130     1.0000 0.83821  0.43001  0.46607  Biso   1.000  C
  C131     1.0000 0.83817  0.43001  0.46607  Biso   1.000  C
  C132     1.0000 0.91974  0.18356  0.52445  Biso   1.000  C
  C133     1.0000 0.07595  0.45955  0.12465  Biso   1.000  C
  C134     1.0000 0.07592  0.45955  0.12465  Biso   1.000  C
  C135     1.0000 0.00399  0.44213  0.07943  Biso   1.000  C
  C136     1.0000 0.00395  0.44213  0.07943  Biso   1.000  C
  H173     1.0000 0.84796  0.53971  0.20958  Biso   1.000  H
  H174     1.0000 0.82185  0.50450  0.28047  Biso   1.000  H
  C137     1.0000 0.81579  0.44409  0.17402  Biso   1.000  C
  H175     1.0000 0.84793  0.53971  0.20958  Biso   1.000  H
  H176     1.0000 0.82319  0.49846  0.22795  Biso   1.000  H
  H177     1.0000 0.85287  0.47893  0.15524  Biso   1.000  H
  C138     1.0000 0.86620  0.58122  0.19999  Biso   1.000  C
  H178     1.0000 0.84918  0.43943  0.51936  Biso   1.000  H
  C139     1.0000 0.79717  0.39443  0.47081  Biso   1.000  C
  H179     1.0000 0.83499  0.47580  0.43858  Biso   1.000  H
  C140     1.0000 0.79714  0.39443  0.47081  Biso   1.000  C
  H180     1.0000 0.88824  0.18123  0.52667  Biso   1.000  H
  H181     1.0000 0.93109  0.18271  0.57850  Biso   1.000  H
  C141     1.0000 0.93737  0.12272  0.47748  Biso   1.000  C
  C142     1.0000 0.09046  0.40571  0.07300  Biso   1.000  C
  O18      1.0000 0.10615  0.49407  0.16928  Biso   1.000  O
  C143     1.0000 0.01862  0.38824  0.02743  Biso   1.000  C
  C144     1.0000 0.95995  0.45855  0.08072  Biso   1.000  C
  H182     1.0000 0.82778  0.45134  0.12102  Biso   1.000  H
  H183     1.0000 0.82051  0.39395  0.18864  Biso   1.000  H
  C145     1.0000 0.77861  0.45558  0.17250  Biso   1.000  C
  C146     1.0000 0.77858  0.45558  0.17250  Biso   1.000  C
  Cl5      1.0000 0.85131  0.68160  0.19970  Biso   1.000  Cl
  H184     1.0000 0.89359  0.57994  0.17115  Biso   1.000  H
  H185     1.0000 0.84519  0.60149  0.16302  Biso   1.000  H
  C147     1.0000 0.87118  0.62749  0.24930  Biso   1.000  C
  H186     1.0000 0.77737  0.42440  0.50140  Biso   1.000  H
  H187     1.0000 0.80090  0.34943  0.49971  Biso   1.000  H
  C148     1.0000 0.77765  0.37892  0.39588  Biso   1.000  C
  C149     1.0000 0.91040  0.08095  0.43390  Biso   1.000  C
  C150     1.0000 0.98205  0.11118  0.47344  Biso   1.000  C
  O19      1.0000 0.13239  0.38511  0.07592  Biso   1.000  O
  C151     1.0000 0.06240  0.37024  0.02544  Biso   1.000  C
  C152     1.0000 0.11862  0.45532  0.23789  Biso   1.000  C
  C153     1.0000 0.11859  0.45532  0.23789  Biso   1.000  C
  C154     1.0000 0.98795  0.35350  0.97918  Biso   1.000  C
  C155     1.0000 0.93173  0.42456  0.03311  Biso   1.000  C
  H188     1.0000 0.94984  0.49402  0.11552  Biso   1.000  H
  H189     1.0000 0.76487  0.42397  0.13477  Biso   1.000  H
  H190     1.0000 0.77373  0.50492  0.15705  Biso   1.000  H
  H191     1.0000 0.76646  0.44753  0.22461  Biso   1.000  H
  C156     1.0000 0.88090  0.67879  0.28989  Biso   1.000  C
  H192     1.0000 0.88358  0.62902  0.30715  Biso   1.000  H
  H193     1.0000 0.87963  0.67175  0.22356  Biso   1.000  H
  H194     1.0000 0.84446  0.63485  0.27778  Biso   1.000  H
  H195     1.0000 0.89356  0.61303  0.28603  Biso   1.000  H
  H196     1.0000 0.79835  0.35239  0.36342  Biso   1.000  H
  H197     1.0000 0.77147  0.42413  0.36886  Biso   1.000  H
  C157     1.0000 0.73524  0.33471  0.40167  Biso   1.000  C
  C158     1.0000 0.92698  0.02705  0.38401  Biso   1.000  C
  O20      1.0000 0.86694  0.09281  0.43338  Biso   1.000  O
  C159     1.0000 0.99869  0.05861  0.42133  Biso   1.000  C
  C160     1.0000 0.01122  0.15131  0.51807  Biso   1.000  C
  C161     1.0000 0.16179  0.43001  0.03393  Biso   1.000  C
  C162     1.0000 0.07863  0.30972  0.97567  Biso   1.000  C
  C163     1.0000 0.07860  0.30972  0.97567  Biso   1.000  C
  H198     1.0000 0.12465  0.40512  0.22520  Biso   1.000  H
  H199     1.0000 0.09617  0.45727  0.27860  Biso   1.000  H
  C164     1.0000 0.15959  0.49428  0.26509  Biso   1.000  C
  H200     1.0000 0.13428  0.41206  0.22210  Biso   1.000  H
  H201     1.0000 0.09279  0.44039  0.26696  Biso   1.000  H
  C165     1.0000 0.14719  0.50053  0.29200  Biso   1.000  C
  H202     1.0000 0.99703  0.31697  0.94484  Biso   1.000  H
  C166     1.0000 0.94608  0.37161  0.98140  Biso   1.000  C
  H203     1.0000 0.99700  0.31697  0.94484  Biso   1.000  H
  H204     1.0000 0.90233  0.43663  0.03480  Biso   1.000  H
  Cl6      1.0000 0.85664  0.72792  0.36412  Biso   1.000  Cl
  H205     1.0000 0.90992  0.69753  0.28071  Biso   1.000  H
  H206     1.0000 0.72392  0.32634  0.34909  Biso   1.000  H
  H207     1.0000 0.74111  0.28923  0.42712  Biso   1.000  H
  H208     1.0000 0.71420  0.36108  0.43256  Biso   1.000  H
  C167     1.0000 0.96952  0.01678  0.37553  Biso   1.000  C
  C168     1.0000 0.96948  0.01678  0.37553  Biso   1.000  C
  O21      1.0000 0.89831  0.98465  0.34505  Biso   1.000  O
  C169     1.0000 0.84363  0.04378  0.48210  Biso   1.000  C
  C170     1.0000 0.84360  0.04378  0.48210  Biso   1.000  C
  C171     1.0000 0.04324  0.05093  0.41466  Biso   1.000  C
  C172     1.0000 0.05402  0.14263  0.51106  Biso   1.000  C
  H209     1.0000 0.00061  0.18536  0.55399  Biso   1.000  H
  H210     1.0000 0.00057  0.18536  0.55399  Biso   1.000  H
  C173     1.0000 0.20283  0.39443  0.02919  Biso   1.000  C
  H211     1.0000 0.16498  0.47580  0.06142  Biso   1.000  H
  H212     1.0000 0.15082  0.43943  0.98064  Biso   1.000  H
  H213     1.0000 0.15079  0.43943  0.98064  Biso   1.000  H
  H214     1.0000 0.06556  0.31120  0.92296  Biso   1.000  H
  H215     1.0000 0.11001  0.31231  0.96999  Biso   1.000  H
  H216     1.0000 0.10998  0.31231  0.96999  Biso   1.000  H
  O22      1.0000 0.06658  0.24645  0.01579  Biso   1.000  O
  H217     1.0000 0.15204  0.53971  0.29042  Biso   1.000  H
  C174     1.0000 0.18421  0.44409  0.32598  Biso   1.000  C
  H218     1.0000 0.17812  0.50450  0.21953  Biso   1.000  H
  C175     1.0000 0.18418  0.44409  0.32598  Biso   1.000  C
  H219     1.0000 0.17681  0.49846  0.27205  Biso   1.000  H
  H220     1.0000 0.14713  0.47893  0.34476  Biso   1.000  H
  C176     1.0000 0.13380  0.58122  0.30001  Biso   1.000  C
  H221     1.0000 0.92634  0.34842  0.94788  Biso   1.000  H
  C177     1.0000 0.98635  0.96522  0.31534  Biso   1.000  C
  C178     1.0000 0.88352  0.01339  0.27217  Biso   1.000  C
  H222     1.0000 0.85405  0.99502  0.47315  Biso   1.000  H
  C179     1.0000 0.79742  0.04813  0.46280  Biso   1.000  C
  H223     1.0000 0.84806  0.05570  0.53790  Biso   1.000  H
  C180     1.0000 0.07044  0.09265  0.45800  Biso   1.000  C
  H224     1.0000 0.05469  0.01662  0.37991  Biso   1.000  H
  H225     1.0000 0.05465  0.01662  0.37991  Biso   1.000  H
  H226     1.0000 0.07286  0.17032  0.54194  Biso   1.000  H
  C181     1.0000 0.22231  0.37892  0.10412  Biso   1.000  C
  H227     1.0000 0.19907  0.34943  0.00029  Biso   1.000  H
  H228     1.0000 0.22263  0.42440  0.99860  Biso   1.000  H
  H229     1.0000 0.22260  0.42440  0.99860  Biso   1.000  H
  C182     1.0000 0.08023  0.18356  0.97555  Biso   1.000  C
  H230     1.0000 0.17222  0.45134  0.37898  Biso   1.000  H
  C183     1.0000 0.22139  0.45558  0.32750  Biso   1.000  C
  H231     1.0000 0.17946  0.39395  0.31136  Biso   1.000  H
  Cl7      1.0000 0.14869  0.68160  0.30030  Biso   1.000  Cl
  H232     1.0000 0.10641  0.57994  0.32885  Biso   1.000  H
  H233     1.0000 0.15481  0.60149  0.33698  Biso   1.000  H
  C184     1.0000 0.12879  0.62749  0.25070  Biso   1.000  C
  O23      1.0000 0.00000  0.00757  0.25000  Biso   1.000  O
  H234     1.0000 0.96371  0.93170  0.29919  Biso   1.000  H
  H235     1.0000 0.01059  0.93784  0.33692  Biso   1.000  H
  C185     1.0000 0.85029  0.95108  0.24128  Biso   1.000  C
  C186     1.0000 0.87768  0.95637  0.21251  Biso   1.000  C
  H236     1.0000 0.90734  0.02038  0.23497  Biso   1.000  H
  H237     1.0000 0.86856  0.05903  0.28007  Biso   1.000  H
  H238     1.0000 0.90440  0.04850  0.25257  Biso   1.000  H
  H239     1.0000 0.85606  0.03812  0.28065  Biso   1.000  H
  H240     1.0000 0.78202  0.01255  0.49462  Biso   1.000  H
  H241     1.0000 0.79363  0.03515  0.40717  Biso   1.000  H
  C187     1.0000 0.77695  0.11992  0.47631  Biso   1.000  C
  H242     1.0000 0.10041  0.08767  0.45209  Biso   1.000  H
  C188     1.0000 0.26476  0.33471  0.09833  Biso   1.000  C
  H243     1.0000 0.20162  0.35239  0.13658  Biso   1.000  H
  H244     1.0000 0.22850  0.42413  0.13108  Biso   1.000  H
  H245     1.0000 0.11176  0.18123  0.97333  Biso   1.000  H
  H246     1.0000 0.06891  0.18271  0.92150  Biso   1.000  H
  C189     1.0000 0.06259  0.12272  0.02252  Biso   1.000  C
  H247     1.0000 0.23351  0.44753  0.27539  Biso   1.000  H
  H248     1.0000 0.22627  0.50492  0.34295  Biso   1.000  H
  H249     1.0000 0.23510  0.42397  0.36523  Biso   1.000  H
  C190     1.0000 0.11910  0.67879  0.21011  Biso   1.000  C
  H250     1.0000 0.11642  0.62902  0.19285  Biso   1.000  H
  H251     1.0000 0.12037  0.67175  0.27644  Biso   1.000  H
  H252     1.0000 0.15554  0.63485  0.22222  Biso   1.000  H
  H253     1.0000 0.10644  0.61303  0.21397  Biso   1.000  H
  C191     1.0000 0.01365  0.96522  0.18460  Biso   1.000  C
  C192     1.0000 0.01362  0.96522  0.18460  Biso   1.000  C
  H254     1.0000 0.82864  0.94176  0.28211  Biso   1.000  H
  H255     1.0000 0.83540  0.96770  0.19373  Biso   1.000  H
  H256     1.0000 0.82861  0.94176  0.28211  Biso   1.000  H
  H257     1.0000 0.83537  0.96770  0.19373  Biso   1.000  H
  C193     1.0000 0.87338  0.88538  0.22380  Biso   1.000  C
  H258     1.0000 0.85214  0.97056  0.18226  Biso   1.000  H
  H259     1.0000 0.90211  0.96146  0.17636  Biso   1.000  H
  H260     1.0000 0.79108  0.15555  0.44268  Biso   1.000  H
  H261     1.0000 0.78129  0.13416  0.53147  Biso   1.000  H
  C194     1.0000 0.72887  0.11912  0.45818  Biso   1.000  C
  H262     1.0000 0.27604  0.32634  0.15091  Biso   1.000  H
  H263     1.0000 0.25886  0.28923  0.07288  Biso   1.000  H
  H264     1.0000 0.28577  0.36108  0.06744  Biso   1.000  H
  C195     1.0000 0.08957  0.08095  0.06610  Biso   1.000  C
  C196     1.0000 0.01792  0.11118  0.02656  Biso   1.000  C
  Cl8      1.0000 0.14336  0.72792  0.13588  Biso   1.000  Cl
  H265     1.0000 0.09008  0.69753  0.21923  Biso   1.000  H
  C197     1.0000 0.03048  0.01678  0.12447  Biso   1.000  C
  H266     1.0000 0.98941  0.93784  0.16308  Biso   1.000  H
  H267     1.0000 0.03626  0.93170  0.20081  Biso   1.000  H
  H268     1.0000 0.88824  0.86918  0.27164  Biso   1.000  H
  H269     1.0000 0.89532  0.89533  0.18361  Biso   1.000  H
  C198     1.0000 0.84481  0.82698  0.19478  Biso   1.000  C
  C199     1.0000 0.84478  0.82698  0.19478  Biso   1.000  C
  H270     1.0000 0.87073  0.88151  0.28129  Biso   1.000  H
  H271     1.0000 0.90224  0.86722  0.21163  Biso   1.000  H
  H272     1.0000 0.71688  0.16624  0.46765  Biso   1.000  H
  H273     1.0000 0.72443  0.10594  0.40337  Biso   1.000  H
  H274     1.0000 0.71465  0.08455  0.49216  Biso   1.000  H
  O24      1.0000 0.13306  0.09281  0.06662  Biso   1.000  O
  O25      1.0000 0.13303  0.09281  0.06662  Biso   1.000  O
  C200     1.0000 0.07299  0.02705  0.11593  Biso   1.000  C
  C201     1.0000 0.00131  0.05861  0.07867  Biso   1.000  C
  C202     1.0000 0.98878  0.15131  0.98193  Biso   1.000  C
  C203     1.0000 0.98874  0.15131  0.98193  Biso   1.000  C
  H275     1.0000 0.85326  0.78214  0.21900  Biso   1.000  H
  H276     1.0000 0.81515  0.83773  0.20882  Biso   1.000  H
  H277     1.0000 0.84726  0.82317  0.13787  Biso   1.000  H
  H278     1.0000 0.84723  0.82317  0.13787  Biso   1.000  H
  C204     1.0000 0.15637  0.04378  0.01790  Biso   1.000  C
  O26      1.0000 0.10165  0.98465  0.15489  Biso   1.000  O
  C205     1.0000 0.95673  0.05093  0.08534  Biso   1.000  C
  C206     1.0000 0.94598  0.14263  0.98894  Biso   1.000  C
  H279     1.0000 0.99939  0.18536  0.94595  Biso   1.000  H
  H280     1.0000 0.14595  0.99502  0.02685  Biso   1.000  H
  H281     1.0000 0.14591  0.99502  0.02685  Biso   1.000  H
  H282     1.0000 0.15191  0.05570  0.96210  Biso   1.000  H
  C207     1.0000 0.20254  0.04813  0.03720  Biso   1.000  C
  C208     1.0000 0.11645  0.01339  0.22777  Biso   1.000  C
  H283     1.0000 0.94531  0.01662  0.12009  Biso   1.000  H
  C209     1.0000 0.92953  0.09265  0.04200  Biso   1.000  C
  H284     1.0000 0.92711  0.17032  0.95806  Biso   1.000  H
  H285     1.0000 0.21798  0.01255  0.00538  Biso   1.000  H
  C210     1.0000 0.22305  0.11992  0.02369  Biso   1.000  C
  H286     1.0000 0.20637  0.03515  0.09283  Biso   1.000  H
  H287     1.0000 0.20634  0.03515  0.09283  Biso   1.000  H
  H288     1.0000 0.09266  0.02038  0.26503  Biso   1.000  H
  H289     1.0000 0.13144  0.05903  0.21988  Biso   1.000  H
  C211     1.0000 0.14971  0.95108  0.25872  Biso   1.000  C
  C212     1.0000 0.14968  0.95108  0.25872  Biso   1.000  C
  C213     1.0000 0.12229  0.95637  0.28749  Biso   1.000  C
  H290     1.0000 0.09560  0.04850  0.24743  Biso   1.000  H
  H291     1.0000 0.14394  0.03812  0.21935  Biso   1.000  H
  H292     1.0000 0.89956  0.08767  0.04791  Biso   1.000  H
  H293     1.0000 0.21871  0.13416  0.96853  Biso   1.000  H
  H294     1.0000 0.21868  0.13416  0.96853  Biso   1.000  H
  H295     1.0000 0.20889  0.15555  0.05732  Biso   1.000  H
  C214     1.0000 0.27110  0.11912  0.04182  Biso   1.000  C
  H296     1.0000 0.17136  0.94176  0.21789  Biso   1.000  H
  H297     1.0000 0.16460  0.96770  0.30627  Biso   1.000  H
  C215     1.0000 0.12659  0.88538  0.27620  Biso   1.000  C
  H298     1.0000 0.14786  0.97056  0.31774  Biso   1.000  H
  H299     1.0000 0.09786  0.96146  0.32364  Biso   1.000  H
  H300     1.0000 0.27553  0.10594  0.09663  Biso   1.000  H
  H301     1.0000 0.28532  0.08455  0.00784  Biso   1.000  H
  H302     1.0000 0.28309  0.16624  0.03235  Biso   1.000  H
  H303     1.0000 0.11176  0.86918  0.22836  Biso   1.000  H
  C216     1.0000 0.15519  0.82698  0.30522  Biso   1.000  C
  H304     1.0000 0.10465  0.89533  0.31639  Biso   1.000  H
  H305     1.0000 0.12927  0.88151  0.21871  Biso   1.000  H
  H306     1.0000 0.09776  0.86722  0.28837  Biso   1.000  H
  H307     1.0000 0.14674  0.78214  0.28100  Biso   1.000  H
  H308     1.0000 0.15274  0.82317  0.36213  Biso   1.000  H
  H309     1.0000 0.14671  0.78214  0.28100  Biso   1.000  H
  H310     1.0000 0.18482  0.83773  0.29118  Biso   1.000  H
  C217     1.0000 0.22888  0.38093  0.54176  Biso   1.000  C
  C218     1.0000 0.27694  0.38008  0.52369  Biso   1.000  C
  H311     1.0000 0.21689  0.33376  0.53235  Biso   1.000  H
  H312     1.0000 0.22445  0.39406  0.59663  Biso   1.000  H
  H313     1.0000 0.21466  0.41545  0.50784  Biso   1.000  H
  C219     1.0000 0.29744  0.45193  0.53720  Biso   1.000  C
  H314     1.0000 0.29109  0.34445  0.55732  Biso   1.000  H
  H315     1.0000 0.28127  0.36584  0.46853  Biso   1.000  H
  C220     1.0000 0.34361  0.45622  0.51790  Biso   1.000  C
  H316     1.0000 0.28201  0.48745  0.50538  Biso   1.000  H
  H317     1.0000 0.29364  0.46485  0.59283  Biso   1.000  H
  O27      1.0000 0.36695  0.40719  0.56662  Biso   1.000  O
  H318     1.0000 0.34808  0.44430  0.46210  Biso   1.000  H
  H319     1.0000 0.35404  0.50498  0.52685  Biso   1.000  H
  C221     1.0000 0.41041  0.41905  0.56604  Biso   1.000  C
  C222     1.0000 0.43736  0.37728  0.52252  Biso   1.000  C
  C223     1.0000 0.42700  0.47295  0.61593  Biso   1.000  C
  C224     1.0000 0.41976  0.31644  0.47555  Biso   1.000  C
  C225     1.0000 0.48206  0.38882  0.52656  Biso   1.000  C
  O28      1.0000 0.39833  0.51535  0.65489  Biso   1.000  O
  C226     1.0000 0.46950  0.48322  0.62447  Biso   1.000  C
  O29      1.0000 0.43340  0.25355  0.51579  Biso   1.000  O
  H320     1.0000 0.38822  0.31883  0.47327  Biso   1.000  H
  H321     1.0000 0.43108  0.31729  0.42150  Biso   1.000  H
  C227     1.0000 0.49868  0.44139  0.57867  Biso   1.000  C
  C228     1.0000 0.51121  0.34869  0.48193  Biso   1.000  C
  C229     1.0000 0.38350  0.48661  0.72777  Biso   1.000  C
  C230     1.0000 0.48637  0.53478  0.68460  Biso   1.000  C
  C231     1.0000 0.42135  0.19028  0.47567  Biso   1.000  C
  C232     1.0000 0.54325  0.44907  0.58528  Biso   1.000  C
  C233     1.0000 0.55400  0.35737  0.48894  Biso   1.000  C
  H322     1.0000 0.50059  0.31464  0.44595  Biso   1.000  H
  H323     1.0000 0.40732  0.47962  0.76503  Biso   1.000  H
  H324     1.0000 0.36855  0.44102  0.71988  Biso   1.000  H
  C234     1.0000 0.35031  0.54892  0.75872  Biso   1.000  C
  H325     1.0000 0.40439  0.45150  0.74737  Biso   1.000  H
  H326     1.0000 0.35605  0.46188  0.71935  Biso   1.000  H
  C235     1.0000 0.37770  0.54363  0.78749  Biso   1.000  C
  O30      1.0000 0.49998  0.49243  0.75000  Biso   1.000  O
  H327     1.0000 0.51057  0.56216  0.66302  Biso   1.000  H
  H328     1.0000 0.46373  0.56830  0.70081  Biso   1.000  H
  C236     1.0000 0.43758  0.12976  0.52544  Biso   1.000  C
  H329     1.0000 0.43442  0.18880  0.42296  Biso   1.000  H
  H330     1.0000 0.38997  0.18769  0.46999  Biso   1.000  H
  H331     1.0000 0.55467  0.48343  0.62009  Biso   1.000  H
  C237     1.0000 0.57045  0.40735  0.54194  Biso   1.000  C
  H332     1.0000 0.57288  0.32968  0.45806  Biso   1.000  H
  H333     1.0000 0.32862  0.55824  0.71789  Biso   1.000  H
  H334     1.0000 0.33538  0.53230  0.80627  Biso   1.000  H
  C238     1.0000 0.37339  0.61462  0.77620  Biso   1.000  C
  H335     1.0000 0.35213  0.52944  0.81774  Biso   1.000  H
  H336     1.0000 0.40212  0.53854  0.82364  Biso   1.000  H
  C239     1.0000 0.51363  0.53478  0.81534  Biso   1.000  C
  C240     1.0000 0.40952  0.09429  0.57300  Biso   1.000  C
  C241     1.0000 0.48136  0.11176  0.52743  Biso   1.000  C
  H337     1.0000 0.60040  0.41238  0.54791  Biso   1.000  H
  H338     1.0000 0.38822  0.63082  0.72836  Biso   1.000  H
  H339     1.0000 0.39533  0.60467  0.81639  Biso   1.000  H
  C242     1.0000 0.34479  0.67302  0.80516  Biso   1.000  C
  H340     1.0000 0.37072  0.61849  0.71865  Biso   1.000  H
  H341     1.0000 0.40225  0.63278  0.78837  Biso   1.000  H
  C243     1.0000 0.53050  0.48322  0.87547  Biso   1.000  C
  H342     1.0000 0.48940  0.56216  0.83692  Biso   1.000  H
  H343     1.0000 0.53627  0.56830  0.79913  Biso   1.000  H
  O31      1.0000 0.36759  0.11489  0.57592  Biso   1.000  O
  C244     1.0000 0.42406  0.04045  0.62465  Biso   1.000  C
  C245     1.0000 0.51204  0.14650  0.47918  Biso   1.000  C
  C246     1.0000 0.49600  0.05787  0.57943  Biso   1.000  C
  H344     1.0000 0.35327  0.71786  0.78100  Biso   1.000  H
  H345     1.0000 0.31517  0.66227  0.79118  Biso   1.000  H
  H346     1.0000 0.34725  0.67683  0.86213  Biso   1.000  H
  C247     1.0000 0.57300  0.47295  0.88401  Biso   1.000  C
  C248     1.0000 0.50129  0.44139  0.92133  Biso   1.000  C
  C249     1.0000 0.33819  0.06999  0.53387  Biso   1.000  C
  O32      1.0000 0.39383  0.00593  0.66928  Biso   1.000  O
  C250     1.0000 0.46587  0.02261  0.62909  Biso   1.000  C
  H347     1.0000 0.50295  0.18303  0.44484  Biso   1.000  H
  C251     1.0000 0.55390  0.12839  0.48134  Biso   1.000  C
  C252     1.0000 0.54003  0.04145  0.58072  Biso   1.000  C
  O33      1.0000 0.60167  0.51535  0.84505  Biso   1.000  O
  C253     1.0000 0.58959  0.41905  0.93390  Biso   1.000  C
  C254     1.0000 0.45675  0.44907  0.91466  Biso   1.000  C
  C255     1.0000 0.51794  0.38882  0.97339  Biso   1.000  C
  H348     1.0000 0.33500  0.02420  0.56142  Biso   1.000  H
  H349     1.0000 0.34919  0.06057  0.48064  Biso   1.000  H
  C256     1.0000 0.29715  0.10562  0.52919  Biso   1.000  C
  C257     1.0000 0.38140  0.04468  0.73789  Biso   1.000  C
  C258     1.0000 0.48127  0.97035  0.68923  Biso   1.000  C
  H350     1.0000 0.57364  0.15158  0.44782  Biso   1.000  H
  C259     1.0000 0.56825  0.07544  0.53311  Biso   1.000  C
  H351     1.0000 0.55014  0.00604  0.61552  Biso   1.000  H
  C260     1.0000 0.61647  0.48661  0.77217  Biso   1.000  C
  O34      1.0000 0.63305  0.40719  0.93338  Biso   1.000  O
  C261     1.0000 0.56261  0.37728  0.97748  Biso   1.000  C
  H352     1.0000 0.44533  0.48343  0.87985  Biso   1.000  H
  C262     1.0000 0.42955  0.40735  0.95800  Biso   1.000  C
  C263     1.0000 0.48876  0.34869  0.01807  Biso   1.000  C
  H353     1.0000 0.30092  0.15057  0.50029  Biso   1.000  H
  H354     1.0000 0.27735  0.07560  0.49860  Biso   1.000  H
  C264     1.0000 0.27767  0.12108  0.60412  Biso   1.000  C
  H355     1.0000 0.37534  0.09488  0.72520  Biso   1.000  H
  H356     1.0000 0.40381  0.04273  0.77860  Biso   1.000  H
  C265     1.0000 0.34039  0.00572  0.76509  Biso   1.000  C
  H357     1.0000 0.36571  0.08794  0.72204  Biso   1.000  H
  H358     1.0000 0.40719  0.05961  0.76690  Biso   1.000  H
  C266     1.0000 0.35279  0.99952  0.79200  Biso   1.000  C
  O35      1.0000 0.49998  0.01255  0.75000  Biso   1.000  O
  H359     1.0000 0.45719  0.94208  0.70993  Biso   1.000  H
  H360     1.0000 0.50263  0.93784  0.66630  Biso   1.000  H
  H361     1.0000 0.59765  0.06337  0.53480  Biso   1.000  H
  H362     1.0000 0.59265  0.47962  0.73497  Biso   1.000  H
  H363     1.0000 0.63142  0.44102  0.78007  Biso   1.000  H
  C267     1.0000 0.64969  0.54892  0.74128  Biso   1.000  C
  H364     1.0000 0.59558  0.45150  0.75257  Biso   1.000  H
  H365     1.0000 0.64392  0.46188  0.78065  Biso   1.000  H
  C268     1.0000 0.62230  0.54363  0.71251  Biso   1.000  C
  C269     1.0000 0.65639  0.45622  0.98210  Biso   1.000  C
  C270     1.0000 0.58024  0.31644  0.02445  Biso   1.000  C
  H366     1.0000 0.39957  0.41238  0.95209  Biso   1.000  H
  C271     1.0000 0.44597  0.35737  0.01106  Biso   1.000  C
  H367     1.0000 0.49938  0.31464  0.05399  Biso   1.000  H
  H368     1.0000 0.29836  0.14761  0.63652  Biso   1.000  H
  H369     1.0000 0.27148  0.07587  0.63108  Biso   1.000  H
  C272     1.0000 0.23523  0.16529  0.59827  Biso   1.000  C
  C273     1.0000 0.31581  0.05591  0.82598  Biso   1.000  C
  H370     1.0000 0.32320  0.00154  0.77199  Biso   1.000  H
  H371     1.0000 0.34795  0.96029  0.79042  Biso   1.000  H
  H372     1.0000 0.32186  0.99550  0.71953  Biso   1.000  H
  H373     1.0000 0.35286  0.02107  0.84476  Biso   1.000  H
  C274     1.0000 0.36619  0.91878  0.80001  Biso   1.000  C
  C275     1.0000 0.51873  0.97035  0.81072  Biso   1.000  C
  H374     1.0000 0.67138  0.55824  0.78211  Biso   1.000  H
  H375     1.0000 0.66458  0.53230  0.69373  Biso   1.000  H
  C276     1.0000 0.62661  0.61462  0.72380  Biso   1.000  C
  H376     1.0000 0.64784  0.52944  0.68226  Biso   1.000  H
  H377     1.0000 0.59788  0.53854  0.67636  Biso   1.000  H
  H378     1.0000 0.64593  0.50498  0.97315  Biso   1.000  H
  C277     1.0000 0.70256  0.45193  0.96280  Biso   1.000  C
  H379     1.0000 0.65192  0.44430  0.03790  Biso   1.000  H
  O36      1.0000 0.56660  0.25355  0.98421  Biso   1.000  O
  H380     1.0000 0.61175  0.31883  0.02667  Biso   1.000  H
  H381     1.0000 0.56889  0.31729  0.07844  Biso   1.000  H
  H382     1.0000 0.42712  0.32968  0.04194  Biso   1.000  H
  H383     1.0000 0.22394  0.17366  0.65091  Biso   1.000  H
  H384     1.0000 0.24113  0.21077  0.57288  Biso   1.000  H
  H385     1.0000 0.21422  0.13892  0.56744  Biso   1.000  H
  H386     1.0000 0.32776  0.04866  0.87898  Biso   1.000  H
  H387     1.0000 0.32053  0.10605  0.81136  Biso   1.000  H
  C278     1.0000 0.27859  0.04442  0.82750  Biso   1.000  C
  Cl9      1.0000 0.35130  0.81840  0.80030  Biso   1.000  Cl
  H388     1.0000 0.39358  0.92006  0.82879  Biso   1.000  H
  H389     1.0000 0.34517  0.89856  0.83698  Biso   1.000  H
  C279     1.0000 0.37119  0.87251  0.75070  Biso   1.000  C
  C280     1.0000 0.53413  0.02261  0.87091  Biso   1.000  C
  H390     1.0000 0.54281  0.94208  0.79007  Biso   1.000  H
  H391     1.0000 0.49737  0.93784  0.83365  Biso   1.000  H
  H392     1.0000 0.61175  0.63082  0.77158  Biso   1.000  H
  H393     1.0000 0.60467  0.60467  0.68361  Biso   1.000  H
  C281     1.0000 0.65518  0.67302  0.69478  Biso   1.000  C
  H394     1.0000 0.62925  0.61849  0.78129  Biso   1.000  H
  H395     1.0000 0.59775  0.63278  0.71163  Biso   1.000  H
  H396     1.0000 0.71796  0.48745  0.99456  Biso   1.000  H
  H397     1.0000 0.70636  0.46485  0.90717  Biso   1.000  H
  C282     1.0000 0.72303  0.38008  0.97631  Biso   1.000  C
  C283     1.0000 0.57862  0.19028  0.02433  Biso   1.000  C
  H398     1.0000 0.26485  0.07608  0.86523  Biso   1.000  H
  H399     1.0000 0.26648  0.05247  0.77539  Biso   1.000  H
  H400     1.0000 0.27372  0.99508  0.84295  Biso   1.000  H
  C284     1.0000 0.38089  0.82121  0.71011  Biso   1.000  C
  H401     1.0000 0.38360  0.87098  0.69285  Biso   1.000  H
  H402     1.0000 0.37964  0.82825  0.77644  Biso   1.000  H
  H403     1.0000 0.34447  0.86515  0.72222  Biso   1.000  H
  H404     1.0000 0.39355  0.88697  0.71391  Biso   1.000  H
  C285     1.0000 0.57594  0.04045  0.87529  Biso   1.000  C
  C286     1.0000 0.50397  0.05787  0.92057  Biso   1.000  C
  H405     1.0000 0.64673  0.71786  0.71900  Biso   1.000  H
  H406     1.0000 0.68483  0.66227  0.70882  Biso   1.000  H
  H407     1.0000 0.65272  0.67683  0.63787  Biso   1.000  H
  H408     1.0000 0.70891  0.34445  0.94268  Biso   1.000  H
  C287     1.0000 0.77112  0.38093  0.95818  Biso   1.000  C
  H409     1.0000 0.71870  0.36584  0.03147  Biso   1.000  H
  C288     1.0000 0.56242  0.12976  0.97456  Biso   1.000  C
  H410     1.0000 0.56554  0.18880  0.07704  Biso   1.000  H
  H411     1.0000 0.60999  0.18769  0.03001  Biso   1.000  H
  Cl10     1.0000 0.35665  0.77213  0.63588  Biso   1.000  Cl
  H412     1.0000 0.40990  0.80247  0.71923  Biso   1.000  H
  O37      1.0000 0.60617  0.00593  0.83066  Biso   1.000  O
  C289     1.0000 0.59048  0.09429  0.92700  Biso   1.000  C
  C290     1.0000 0.51864  0.11176  0.97257  Biso   1.000  C
  C291     1.0000 0.45993  0.04145  0.91928  Biso   1.000  C
  H413     1.0000 0.78311  0.33376  0.96759  Biso   1.000  H
  H414     1.0000 0.77552  0.39406  0.90337  Biso   1.000  H
  H415     1.0000 0.78534  0.41545  0.99216  Biso   1.000  H
  C292     1.0000 0.61860  0.04468  0.76211  Biso   1.000  C
  O38      1.0000 0.63241  0.11489  0.92408  Biso   1.000  O
  C293     1.0000 0.48796  0.14650  0.02077  Biso   1.000  C
  C294     1.0000 0.43171  0.07544  0.96689  Biso   1.000  C
  H416     1.0000 0.44986  0.00604  0.88448  Biso   1.000  H
  H417     1.0000 0.62466  0.09488  0.77480  Biso   1.000  H
  H418     1.0000 0.59615  0.04273  0.72140  Biso   1.000  H
  C295     1.0000 0.65958  0.00572  0.73491  Biso   1.000  C
  H419     1.0000 0.63426  0.08794  0.77790  Biso   1.000  H
  H420     1.0000 0.59281  0.05961  0.73304  Biso   1.000  H
  C296     1.0000 0.64721  0.99952  0.70800  Biso   1.000  C
  C297     1.0000 0.66181  0.06999  0.96607  Biso   1.000  C
  H421     1.0000 0.49702  0.18303  0.05516  Biso   1.000  H
  C298     1.0000 0.44606  0.12839  0.01860  Biso   1.000  C
  H422     1.0000 0.40235  0.06337  0.96520  Biso   1.000  H
  C299     1.0000 0.68419  0.05591  0.67402  Biso   1.000  C
  H423     1.0000 0.67680  0.00154  0.72795  Biso   1.000  H
  H424     1.0000 0.65205  0.96029  0.70958  Biso   1.000  H
  H425     1.0000 0.67814  0.99550  0.78042  Biso   1.000  H
  H426     1.0000 0.64711  0.02107  0.65524  Biso   1.000  H
  C300     1.0000 0.63378  0.91878  0.69999  Biso   1.000  C
  H427     1.0000 0.66500  0.02420  0.93858  Biso   1.000  H
  C301     1.0000 0.70285  0.10562  0.97081  Biso   1.000  C
  H428     1.0000 0.65081  0.06057  0.01936  Biso   1.000  H
  H429     1.0000 0.42636  0.15158  0.05212  Biso   1.000  H
  H430     1.0000 0.67220  0.04866  0.62102  Biso   1.000  H
  H431     1.0000 0.67947  0.10605  0.68858  Biso   1.000  H
  C302     1.0000 0.72141  0.04442  0.67250  Biso   1.000  C
  Cl11     1.0000 0.64867  0.81840  0.69970  Biso   1.000  Cl
  H432     1.0000 0.60639  0.92006  0.67115  Biso   1.000  H
  H433     1.0000 0.65479  0.89856  0.66302  Biso   1.000  H
  C303     1.0000 0.62881  0.87251  0.74930  Biso   1.000  C
  H434     1.0000 0.69908  0.15057  0.99971  Biso   1.000  H
  C304     1.0000 0.72233  0.12108  0.89588  Biso   1.000  C
  H435     1.0000 0.72262  0.07560  0.00140  Biso   1.000  H
  H436     1.0000 0.73512  0.07608  0.63471  Biso   1.000  H
  H437     1.0000 0.73352  0.05247  0.72461  Biso   1.000  H
  H438     1.0000 0.72625  0.99508  0.65700  Biso   1.000  H
  C305     1.0000 0.61908  0.82121  0.78989  Biso   1.000  C
  H439     1.0000 0.61640  0.87098  0.80715  Biso   1.000  H
  H440     1.0000 0.62036  0.82825  0.72356  Biso   1.000  H
  H441     1.0000 0.65553  0.86515  0.77778  Biso   1.000  H
  H442     1.0000 0.60642  0.88697  0.78603  Biso   1.000  H
  H443     1.0000 0.70164  0.14761  0.86342  Biso   1.000  H
  H444     1.0000 0.72852  0.07587  0.86886  Biso   1.000  H
  C306     1.0000 0.76474  0.16529  0.90167  Biso   1.000  C
  Cl12     1.0000 0.64335  0.77213  0.86406  Biso   1.000  Cl
  H445     1.0000 0.59006  0.80247  0.78071  Biso   1.000  H
  H446     1.0000 0.77603  0.17366  0.84903  Biso   1.000  H
  H447     1.0000 0.75884  0.21077  0.92712  Biso   1.000  H
  H448     1.0000 0.78578  0.13892  0.93256  Biso   1.000  H
  C307     1.0000 0.35031  0.45108  0.25872  Biso   1.000  C
  C308     1.0000 0.37339  0.38543  0.27620  Biso   1.000  C
  C309     1.0000 0.37770  0.45643  0.28749  Biso   1.000  C
  C310     1.0000 0.38350  0.51339  0.22777  Biso   1.000  C
  H449     1.0000 0.32862  0.44176  0.21789  Biso   1.000  H
  H450     1.0000 0.33538  0.46770  0.30627  Biso   1.000  H
  H451     1.0000 0.35213  0.47056  0.31774  Biso   1.000  H
  C311     1.0000 0.34479  0.32698  0.30522  Biso   1.000  C
  H452     1.0000 0.38822  0.36918  0.22836  Biso   1.000  H
  H453     1.0000 0.39533  0.39533  0.31639  Biso   1.000  H
  H454     1.0000 0.37072  0.38157  0.21871  Biso   1.000  H
  H455     1.0000 0.40225  0.36727  0.28837  Biso   1.000  H
  H456     1.0000 0.40212  0.46151  0.32364  Biso   1.000  H
  O39      1.0000 0.39833  0.48465  0.15489  Biso   1.000  O
  H457     1.0000 0.40732  0.52038  0.26503  Biso   1.000  H
  H458     1.0000 0.36855  0.55903  0.21988  Biso   1.000  H
  H459     1.0000 0.40439  0.54850  0.24743  Biso   1.000  H
  H460     1.0000 0.35605  0.53812  0.21935  Biso   1.000  H
  H461     1.0000 0.35327  0.28214  0.28100  Biso   1.000  H
  H462     1.0000 0.31517  0.33773  0.29118  Biso   1.000  H
  H463     1.0000 0.34725  0.32317  0.36213  Biso   1.000  H
  C312     1.0000 0.42700  0.52711  0.11593  Biso   1.000  C
  C313     1.0000 0.41041  0.58095  0.06610  Biso   1.000  C
  C314     1.0000 0.46950  0.51678  0.12447  Biso   1.000  C
  O40      1.0000 0.36695  0.59281  0.06662  Biso   1.000  O
  C315     1.0000 0.43736  0.62272  0.02252  Biso   1.000  C
  C316     1.0000 0.49868  0.55861  0.07867  Biso   1.000  C
  C317     1.0000 0.48637  0.46522  0.18460  Biso   1.000  C
  C318     1.0000 0.34361  0.54378  0.01790  Biso   1.000  C
  C319     1.0000 0.48206  0.61118  0.02656  Biso   1.000  C
  C320     1.0000 0.41976  0.68356  0.97555  Biso   1.000  C
  C321     1.0000 0.54325  0.55093  0.08534  Biso   1.000  C
  O41      1.0000 0.49998  0.50757  0.25000  Biso   1.000  O
  H464     1.0000 0.51057  0.43784  0.16308  Biso   1.000  H
  H465     1.0000 0.46373  0.43170  0.20081  Biso   1.000  H
  H466     1.0000 0.35404  0.49502  0.02685  Biso   1.000  H
  C322     1.0000 0.29744  0.54813  0.03720  Biso   1.000  C
  H467     1.0000 0.34808  0.55570  0.96210  Biso   1.000  H
  C323     1.0000 0.51121  0.65131  0.98193  Biso   1.000  C
  O42      1.0000 0.43340  0.74645  0.01579  Biso   1.000  O
  H468     1.0000 0.38822  0.68123  0.97333  Biso   1.000  H
  H469     1.0000 0.43108  0.68271  0.92150  Biso   1.000  H
  H470     1.0000 0.55467  0.51662  0.12009  Biso   1.000  H
  C324     1.0000 0.57045  0.59265  0.04200  Biso   1.000  C
  C325     1.0000 0.51363  0.46522  0.31534  Biso   1.000  C
  H471     1.0000 0.28201  0.51255  0.00538  Biso   1.000  H
  H472     1.0000 0.29364  0.53515  0.09283  Biso   1.000  H
  C326     1.0000 0.27694  0.61992  0.02369  Biso   1.000  C
  C327     1.0000 0.55400  0.64263  0.98894  Biso   1.000  C
  H473     1.0000 0.50059  0.68536  0.94595  Biso   1.000  H
  C328     1.0000 0.42135  0.80972  0.97567  Biso   1.000  C
  H474     1.0000 0.60040  0.58767  0.04791  Biso   1.000  H
  C329     1.0000 0.53050  0.51678  0.37553  Biso   1.000  C
  H475     1.0000 0.48940  0.43784  0.33692  Biso   1.000  H
  H476     1.0000 0.53627  0.43170  0.29919  Biso   1.000  H
  H477     1.0000 0.29109  0.65555  0.05732  Biso   1.000  H
  C330     1.0000 0.22888  0.61912  0.04182  Biso   1.000  C
  H478     1.0000 0.28127  0.63416  0.96853  Biso   1.000  H
  H479     1.0000 0.57288  0.67032  0.95806  Biso   1.000  H
  C331     1.0000 0.43758  0.87024  0.02544  Biso   1.000  C
  H480     1.0000 0.43442  0.81120  0.92296  Biso   1.000  H
  H481     1.0000 0.38997  0.81231  0.96999  Biso   1.000  H
  C332     1.0000 0.57300  0.52711  0.38401  Biso   1.000  C
  C333     1.0000 0.50129  0.55861  0.42133  Biso   1.000  C
  H482     1.0000 0.21689  0.66624  0.03235  Biso   1.000  H
  H483     1.0000 0.22445  0.60594  0.09663  Biso   1.000  H
  H484     1.0000 0.21466  0.58455  0.00784  Biso   1.000  H
  C334     1.0000 0.40952  0.90571  0.07300  Biso   1.000  C
  C335     1.0000 0.48136  0.88824  0.02743  Biso   1.000  C
  O43      1.0000 0.60167  0.48465  0.34505  Biso   1.000  O
  C336     1.0000 0.58959  0.58095  0.43390  Biso   1.000  C
  C337     1.0000 0.45675  0.55093  0.41466  Biso   1.000  C
  C338     1.0000 0.51794  0.61118  0.47344  Biso   1.000  C
  O44      1.0000 0.36759  0.88511  0.07592  Biso   1.000  O
  C339     1.0000 0.42406  0.95960  0.12465  Biso   1.000  C
  C340     1.0000 0.49600  0.94219  0.07943  Biso   1.000  C
  C341     1.0000 0.51204  0.85350  0.97918  Biso   1.000  C
  C342     1.0000 0.61647  0.51339  0.27217  Biso   1.000  C
  O45      1.0000 0.63305  0.59281  0.43338  Biso   1.000  O
  C343     1.0000 0.56261  0.62272  0.47748  Biso   1.000  C
  H485     1.0000 0.44533  0.51662  0.37991  Biso   1.000  H
  C344     1.0000 0.42955  0.59265  0.45800  Biso   1.000  C
  C345     1.0000 0.48876  0.65131  0.51807  Biso   1.000  C
  C346     1.0000 0.33819  0.93001  0.03393  Biso   1.000  C
  O46      1.0000 0.39383  0.99407  0.16928  Biso   1.000  O
  C347     1.0000 0.46587  0.97739  0.12909  Biso   1.000  C
  C348     1.0000 0.54003  0.95855  0.08072  Biso   1.000  C
  H486     1.0000 0.50295  0.81697  0.94484  Biso   1.000  H
  C349     1.0000 0.55390  0.87161  0.98140  Biso   1.000  C
  H487     1.0000 0.59265  0.52038  0.23497  Biso   1.000  H
  H488     1.0000 0.63142  0.55903  0.28007  Biso   1.000  H
  C350     1.0000 0.64969  0.45108  0.24128  Biso   1.000  C
  H489     1.0000 0.59558  0.54850  0.25257  Biso   1.000  H
  H490     1.0000 0.64392  0.53812  0.28065  Biso   1.000  H
  C351     1.0000 0.62230  0.45643  0.21251  Biso   1.000  C
  C352     1.0000 0.65639  0.54378  0.48210  Biso   1.000  C
  C353     1.0000 0.58024  0.68356  0.52445  Biso   1.000  C
  H491     1.0000 0.39957  0.58767  0.45209  Biso   1.000  H
  C354     1.0000 0.44597  0.64263  0.51106  Biso   1.000  C
  H492     1.0000 0.49938  0.68536  0.55399  Biso   1.000  H
  H493     1.0000 0.33500  0.97580  0.06142  Biso   1.000  H
  C355     1.0000 0.29715  0.89443  0.02919  Biso   1.000  C
  H494     1.0000 0.34919  0.93943  0.98064  Biso   1.000  H
  C356     1.0000 0.38140  0.95532  0.23789  Biso   1.000  C
  C357     1.0000 0.48127  0.02965  0.18923  Biso   1.000  C
  C358     1.0000 0.56825  0.92456  0.03311  Biso   1.000  C
  H495     1.0000 0.55014  0.99402  0.11552  Biso   1.000  H
  H496     1.0000 0.57364  0.84842  0.94788  Biso   1.000  H
  H497     1.0000 0.67138  0.44176  0.28211  Biso   1.000  H
  H498     1.0000 0.66458  0.46770  0.19373  Biso   1.000  H
  C359     1.0000 0.62661  0.38543  0.22380  Biso   1.000  C
  H499     1.0000 0.64784  0.47056  0.18226  Biso   1.000  H
  H500     1.0000 0.59788  0.46151  0.17636  Biso   1.000  H
  H501     1.0000 0.65192  0.55570  0.53790  Biso   1.000  H
  H502     1.0000 0.64593  0.49502  0.47315  Biso   1.000  H
  C360     1.0000 0.70256  0.54813  0.46280  Biso   1.000  C
  O47      1.0000 0.56660  0.74645  0.48421  Biso   1.000  O
  H503     1.0000 0.61175  0.68123  0.52667  Biso   1.000  H
  H504     1.0000 0.56889  0.68271  0.57850  Biso   1.000  H
  H505     1.0000 0.42712  0.67032  0.54194  Biso   1.000  H
  H506     1.0000 0.30092  0.84943  0.00029  Biso   1.000  H
  C361     1.0000 0.27767  0.87892  0.10412  Biso   1.000  C
  H507     1.0000 0.27735  0.92440  0.99860  Biso   1.000  H
  H508     1.0000 0.37534  0.90512  0.22520  Biso   1.000  H
  H509     1.0000 0.40381  0.95727  0.27860  Biso   1.000  H
  C362     1.0000 0.34039  0.99434  0.26509  Biso   1.000  C
  H510     1.0000 0.36571  0.91206  0.22210  Biso   1.000  H
  H511     1.0000 0.40719  0.94039  0.26696  Biso   1.000  H
  C363     1.0000 0.35279  0.00053  0.29200  Biso   1.000  C
  O48      1.0000 0.49998  0.98745  0.25000  Biso   1.000  O
  H512     1.0000 0.45719  0.05797  0.20993  Biso   1.000  H
  H513     1.0000 0.50263  0.06216  0.16635  Biso   1.000  H
  H514     1.0000 0.59765  0.93663  0.03480  Biso   1.000  H
  H515     1.0000 0.61175  0.36918  0.27164  Biso   1.000  H
  H516     1.0000 0.60467  0.39533  0.18361  Biso   1.000  H
  C364     1.0000 0.65518  0.32698  0.19478  Biso   1.000  C
  H517     1.0000 0.62925  0.38157  0.28129  Biso   1.000  H
  H518     1.0000 0.59775  0.36727  0.21163  Biso   1.000  H
  H519     1.0000 0.71796  0.51255  0.49462  Biso   1.000  H
  H520     1.0000 0.70636  0.53515  0.40717  Biso   1.000  H
  C365     1.0000 0.72303  0.61992  0.47631  Biso   1.000  C
  C366     1.0000 0.57862  0.80972  0.52433  Biso   1.000  C
  H521     1.0000 0.29836  0.85239  0.13658  Biso   1.000  H
  H522     1.0000 0.27148  0.92413  0.13108  Biso   1.000  H
  C367     1.0000 0.23523  0.83471  0.09833  Biso   1.000  C
  C368     1.0000 0.31581  0.94409  0.32598  Biso   1.000  C
  H523     1.0000 0.32320  0.99846  0.27205  Biso   1.000  H
  H524     1.0000 0.34795  0.03971  0.29042  Biso   1.000  H
  H525     1.0000 0.32186  0.00450  0.21953  Biso   1.000  H
  H526     1.0000 0.35286  0.97893  0.34476  Biso   1.000  H
  C369     1.0000 0.36619  0.08122  0.30001  Biso   1.000  C
  C370     1.0000 0.51873  0.02965  0.31072  Biso   1.000  C
  H527     1.0000 0.64673  0.28214  0.21900  Biso   1.000  H
  H528     1.0000 0.68483  0.33773  0.20882  Biso   1.000  H
  H529     1.0000 0.65272  0.32317  0.13787  Biso   1.000  H
  H530     1.0000 0.70891  0.65555  0.44268  Biso   1.000  H
  H531     1.0000 0.71870  0.63416  0.53147  Biso   1.000  H
  C371     1.0000 0.77112  0.61912  0.45818  Biso   1.000  C
  C372     1.0000 0.56242  0.87024  0.47456  Biso   1.000  C
  H532     1.0000 0.56554  0.81120  0.57704  Biso   1.000  H
  H533     1.0000 0.60999  0.81231  0.53001  Biso   1.000  H
  H534     1.0000 0.22394  0.82634  0.15091  Biso   1.000  H
  H535     1.0000 0.24113  0.78923  0.07288  Biso   1.000  H
  H536     1.0000 0.21422  0.86108  0.06744  Biso   1.000  H
  H537     1.0000 0.32776  0.95140  0.37898  Biso   1.000  H
  H538     1.0000 0.32053  0.89395  0.31136  Biso   1.000  H
  C373     1.0000 0.27859  0.95563  0.32750  Biso   1.000  C
  Cl13     1.0000 0.35130  0.18160  0.30030  Biso   1.000  Cl
  H539     1.0000 0.39358  0.07994  0.32885  Biso   1.000  H
  H540     1.0000 0.34517  0.10149  0.33698  Biso   1.000  H
  C374     1.0000 0.37119  0.12749  0.25070  Biso   1.000  C
  C375     1.0000 0.53413  0.97739  0.37091  Biso   1.000  C
  H541     1.0000 0.54281  0.05797  0.29007  Biso   1.000  H
  H542     1.0000 0.49737  0.06216  0.33365  Biso   1.000  H
  H543     1.0000 0.78311  0.66624  0.46765  Biso   1.000  H
  H544     1.0000 0.77552  0.60594  0.40337  Biso   1.000  H
  H545     1.0000 0.78534  0.58455  0.49216  Biso   1.000  H
  C376     1.0000 0.59048  0.90571  0.42700  Biso   1.000  C
  C377     1.0000 0.51864  0.88824  0.47257  Biso   1.000  C
  H546     1.0000 0.26485  0.92397  0.36523  Biso   1.000  H
  H547     1.0000 0.26648  0.94753  0.27539  Biso   1.000  H
  H548     1.0000 0.27372  0.00492  0.34295  Biso   1.000  H
  C378     1.0000 0.38089  0.17879  0.21011  Biso   1.000  C
  H549     1.0000 0.38360  0.12902  0.19285  Biso   1.000  H
  H550     1.0000 0.37964  0.17175  0.27644  Biso   1.000  H
  H551     1.0000 0.34447  0.13490  0.22222  Biso   1.000  H
  H552     1.0000 0.39355  0.11303  0.21397  Biso   1.000  H
  C379     1.0000 0.57594  0.95960  0.37529  Biso   1.000  C
  C380     1.0000 0.50397  0.94219  0.42057  Biso   1.000  C
  O49      1.0000 0.63241  0.88511  0.42408  Biso   1.000  O
  C381     1.0000 0.48796  0.85350  0.52082  Biso   1.000  C
  Cl14     1.0000 0.35665  0.22792  0.13588  Biso   1.000  Cl
  H553     1.0000 0.40990  0.19753  0.21923  Biso   1.000  H
  O50      1.0000 0.60617  0.99407  0.33066  Biso   1.000  O
  C382     1.0000 0.45993  0.95855  0.41928  Biso   1.000  C
  C383     1.0000 0.66181  0.93001  0.46607  Biso   1.000  C
  H554     1.0000 0.49702  0.81697  0.55516  Biso   1.000  H
  C384     1.0000 0.44606  0.87161  0.51860  Biso   1.000  C
  C385     1.0000 0.61860  0.95532  0.26211  Biso   1.000  C
  C386     1.0000 0.43171  0.92456  0.46689  Biso   1.000  C
  H555     1.0000 0.44986  0.99402  0.38448  Biso   1.000  H
  H556     1.0000 0.66500  0.97580  0.43858  Biso   1.000  H
  H557     1.0000 0.65081  0.93943  0.51936  Biso   1.000  H
  C387     1.0000 0.70285  0.89443  0.47081  Biso   1.000  C
  H558     1.0000 0.42636  0.84842  0.55212  Biso   1.000  H
  H559     1.0000 0.62466  0.90512  0.27480  Biso   1.000  H
  H560     1.0000 0.59615  0.95727  0.22140  Biso   1.000  H
  C388     1.0000 0.65958  0.99434  0.23491  Biso   1.000  C
  H561     1.0000 0.63426  0.91206  0.27790  Biso   1.000  H
  H562     1.0000 0.59281  0.94039  0.23304  Biso   1.000  H
  C389     1.0000 0.64721  0.00053  0.20800  Biso   1.000  C
  H563     1.0000 0.40235  0.93663  0.46520  Biso   1.000  H
  H564     1.0000 0.69908  0.84943  0.49971  Biso   1.000  H
  H565     1.0000 0.72262  0.92440  0.50140  Biso   1.000  H
  C390     1.0000 0.72233  0.87892  0.39588  Biso   1.000  C
  C391     1.0000 0.68419  0.94409  0.17402  Biso   1.000  C
  H566     1.0000 0.67680  0.99846  0.22795  Biso   1.000  H
  H567     1.0000 0.65205  0.03971  0.20958  Biso   1.000  H
  H568     1.0000 0.67814  0.00450  0.28047  Biso   1.000  H
  H569     1.0000 0.64711  0.97893  0.15524  Biso   1.000  H
  C392     1.0000 0.63378  0.08122  0.19999  Biso   1.000  C
  H570     1.0000 0.70164  0.85239  0.36342  Biso   1.000  H
  H571     1.0000 0.72852  0.92413  0.36886  Biso   1.000  H
  C393     1.0000 0.76474  0.83471  0.40167  Biso   1.000  C
  H572     1.0000 0.67220  0.95140  0.12102  Biso   1.000  H
  H573     1.0000 0.67947  0.89395  0.18864  Biso   1.000  H
  C394     1.0000 0.72141  0.95563  0.17250  Biso   1.000  C
  Cl15     1.0000 0.64867  0.18160  0.19970  Biso   1.000  Cl
  H574     1.0000 0.60639  0.07994  0.17115  Biso   1.000  H
  H575     1.0000 0.65479  0.10149  0.16302  Biso   1.000  H
  C395     1.0000 0.62881  0.12749  0.24930  Biso   1.000  C
  H576     1.0000 0.77603  0.82634  0.34909  Biso   1.000  H
  H577     1.0000 0.75884  0.78923  0.42712  Biso   1.000  H
  H578     1.0000 0.78578  0.86108  0.43256  Biso   1.000  H
  H579     1.0000 0.73512  0.92397  0.13477  Biso   1.000  H
  H580     1.0000 0.73352  0.94753  0.22461  Biso   1.000  H
  H581     1.0000 0.72625  0.00492  0.15705  Biso   1.000  H
  C396     1.0000 0.61908  0.17879  0.28989  Biso   1.000  C
  H582     1.0000 0.61640  0.12902  0.30715  Biso   1.000  H
  H583     1.0000 0.62036  0.17175  0.22356  Biso   1.000  H
  H584     1.0000 0.65553  0.13490  0.27778  Biso   1.000  H
  H585     1.0000 0.60642  0.11303  0.28603  Biso   1.000  H
  Cl16     1.0000 0.64335  0.22792  0.36412  Biso   1.000  Cl
  H586     1.0000 0.59006  0.19753  0.28071  Biso   1.000  H
  Ne1      1.0000 0.99842  0.29385  0.24938  Biso   1.000  Ne
  He1      1.0000 0.13816  0.22283  0.31250  Biso   1.000  He
  He2      1.0000 0.86231  0.22315  0.18797  Biso   1.000  He
  Ar1      1.0000 0.99805  0.25016  0.24945  Biso   1.000  Ar
  Ne2      1.0000 0.49999  0.79839  0.25000  Biso   1.000  Ne
  He3      1.0000 0.36479  0.72466  0.30959  Biso   1.000  He
  He4      1.0000 0.60370  0.73061  0.21766  Biso   1.000  He
  Ar2      1.0000 0.49997  0.74995  0.25001  Biso   1.000  Ar
  Ne3      1.0000 0.49999  0.20162  0.74999  Biso   1.000  Ne
  He5      1.0000 0.33261  0.29472  0.83925  Biso   1.000  He
  He6      1.0000 0.67364  0.25202  0.07993  Biso   1.000  He
  He7      1.0000 0.66408  0.29282  0.66338  Biso   1.000  He
  He8      1.0000 0.00000  0.00000  0.00000  Biso   1.000  He
  Ar3      1.0000 0.49997  0.25005  0.75001  Biso   1.000  Ar
  Ne4      1.0000 0.99842  0.70616  0.74937  Biso   1.000  Ne
  He9      1.0000 0.16697  0.79452  0.83904  Biso   1.000  He
  He10     1.0000 0.86047  0.77800  0.68619  Biso   1.000  He
  Ar4      1.0000 0.99802  0.75003  0.74964  Biso   1.000  Ar
