data_image0
_cell_length_a       18.976
_cell_length_b       17.024
_cell_length_c       56.342
_cell_angle_alpha    90
_cell_angle_beta     90.8
_cell_angle_gamma    90

_symmetry_space_group_name_H-M    "P 1"
_symmetry_int_tables_number       1

loop_
  _symmetry_equiv_pos_as_xyz
  'x, y, z'

loop_
  _atom_site_label
  _atom_site_occupancy
  _atom_site_fract_x
  _atom_site_fract_y
  _atom_site_fract_z
  _atom_site_thermal_displace_type
  _atom_site_B_iso_or_equiv
  _atom_site_type_symbol
  C1       1.0000 0.60200  0.51351  0.51050  Biso   1.000  C
  C2       1.0000 0.59531  0.43227  0.49920  Biso   1.000  C
  C3       1.0000 0.56733  0.51668  0.53480  Biso   1.000  C
  H1       1.0000 0.65251  0.52726  0.51223  Biso   1.000  H
  H2       1.0000 0.57953  0.55293  0.49989  Biso   1.000  H
  C4       1.0000 0.64111  0.42117  0.47759  Biso   1.000  C
  H3       1.0000 0.54548  0.42346  0.49448  Biso   1.000  H
  H4       1.0000 0.60819  0.39209  0.51116  Biso   1.000  H
  O1       1.0000 0.61162  0.47081  0.55060  Biso   1.000  O
  H5       1.0000 0.51924  0.49430  0.53393  Biso   1.000  H
  H6       1.0000 0.56425  0.57160  0.54045  Biso   1.000  H
  H7       1.0000 0.63431  0.36813  0.47124  Biso   1.000  H
  H8       1.0000 0.69073  0.42851  0.48214  Biso   1.000  H
  H9       1.0000 0.62790  0.45988  0.46542  Biso   1.000  H
  C5       1.0000 0.59474  0.47709  0.57430  Biso   1.000  C
  C6       1.0000 0.63373  0.52520  0.58942  Biso   1.000  C
  C7       1.0000 0.54014  0.42840  0.58310  Biso   1.000  C
  C8       1.0000 0.69355  0.57119  0.57939  Biso   1.000  C
  C9       1.0000 0.61915  0.52279  0.61410  Biso   1.000  C
  O2       1.0000 0.49825  0.38851  0.56677  Biso   1.000  O
  C10      1.0000 0.52775  0.42399  0.60700  Biso   1.000  C
  O3       1.0000 0.75655  0.53137  0.58633  Biso   1.000  O
  H10      1.0000 0.69350  0.62535  0.58577  Biso   1.000  H
  H11      1.0000 0.68935  0.57366  0.56191  Biso   1.000  H
  C11      1.0000 0.56783  0.47086  0.62301  Biso   1.000  C
  C12      1.0000 0.65826  0.57178  0.63060  Biso   1.000  C
  C13      1.0000 0.52445  0.31438  0.55919  Biso   1.000  C
  C14      1.0000 0.47595  0.36402  0.61599  Biso   1.000  C
  C15      1.0000 0.81931  0.56949  0.57859  Biso   1.000  C
  C16      1.0000 0.55626  0.46810  0.64780  Biso   1.000  C
  C17      1.0000 0.64527  0.56720  0.65411  Biso   1.000  C
  H12      1.0000 0.69301  0.60708  0.62491  Biso   1.000  H
  H13      1.0000 0.56948  0.32231  0.55090  Biso   1.000  H
  H14      1.0000 0.53399  0.28107  0.57330  Biso   1.000  H
  C18      1.0000 0.47345  0.27338  0.54300  Biso   1.000  C
  O4       1.0000 0.51834  0.29952  0.62412  Biso   1.000  O
  H15      1.0000 0.44337  0.34710  0.60311  Biso   1.000  H
  H16      1.0000 0.44798  0.38587  0.62915  Biso   1.000  H
  C19      1.0000 0.87943  0.52238  0.58731  Biso   1.000  C
  H17      1.0000 0.81974  0.57249  0.56104  Biso   1.000  H
  H18      1.0000 0.82200  0.62341  0.58507  Biso   1.000  H
  H19      1.0000 0.52189  0.43327  0.65393  Biso   1.000  H
  C20      1.0000 0.59478  0.51586  0.66300  Biso   1.000  C
  H20      1.0000 0.67111  0.59974  0.66481  Biso   1.000  H
  H21      1.0000 0.49075  0.21904  0.54082  Biso   1.000  H
  H22      1.0000 0.47538  0.29958  0.52738  Biso   1.000  H
  C21      1.0000 0.40031  0.26850  0.54961  Biso   1.000  C
  C22      1.0000 0.47714  0.23620  0.63341  Biso   1.000  C
  C23      1.0000 0.91592  0.47656  0.57130  Biso   1.000  C
  C24      1.0000 0.89735  0.51750  0.61165  Biso   1.000  C
  H23      1.0000 0.58672  0.51380  0.67965  Biso   1.000  H
  H24      1.0000 0.37910  0.22568  0.54002  Biso   1.000  H
  H25      1.0000 0.39948  0.25112  0.56635  Biso   1.000  H
  C25      1.0000 0.35153  0.33758  0.54750  Biso   1.000  C
  H26      1.0000 0.39818  0.22645  0.56168  Biso   1.000  H
  H27      1.0000 0.39028  0.31820  0.55802  Biso   1.000  H
  C26      1.0000 0.33964  0.25499  0.53390  Biso   1.000  C
  H28      1.0000 0.44829  0.25446  0.64683  Biso   1.000  H
  H29      1.0000 0.44538  0.21446  0.62095  Biso   1.000  H
  C27      1.0000 0.53003  0.17452  0.64170  Biso   1.000  C
  O5       1.0000 0.89833  0.47498  0.54750  Biso   1.000  O
  C28      1.0000 0.97075  0.42499  0.57950  Biso   1.000  C
  C29      1.0000 0.86255  0.56426  0.62890  Biso   1.000  C
  C30      1.0000 0.95223  0.46658  0.61979  Biso   1.000  C
  H30      1.0000 0.30448  0.32231  0.55282  Biso   1.000  H
  H31      1.0000 0.34879  0.35491  0.53097  Biso   1.000  H
  H32      1.0000 0.36939  0.38058  0.55751  Biso   1.000  H
  H33      1.0000 0.29644  0.25488  0.54320  Biso   1.000  H
  H34      1.0000 0.34483  0.20477  0.52575  Biso   1.000  H
  H35      1.0000 0.33683  0.29758  0.52206  Biso   1.000  H
  C31      1.0000 0.54686  0.16800  0.66500  Biso   1.000  C
  C32      1.0000 0.56563  0.12782  0.62460  Biso   1.000  C
  C33      1.0000 0.93919  0.53090  0.53401  Biso   1.000  C
  C34      1.0000 0.98922  0.41770  0.60300  Biso   1.000  C
  O6       1.0000 0.00882  0.38416  0.56226  Biso   1.000  O
  H36      1.0000 0.82634  0.59927  0.62381  Biso   1.000  H
  C35      1.0000 0.87986  0.56027  0.65229  Biso   1.000  C
  C36      1.0000 0.96853  0.46411  0.64420  Biso   1.000  C
  O7       1.0000 0.50904  0.21088  0.68203  Biso   1.000  O
  C37      1.0000 0.59985  0.11830  0.67340  Biso   1.000  C
  C38      1.0000 0.61974  0.07343  0.63320  Biso   1.000  C
  C39      1.0000 0.55134  0.13117  0.60041  Biso   1.000  C
  H37      1.0000 0.93137  0.58482  0.53993  Biso   1.000  H
  H38      1.0000 0.99016  0.51862  0.53548  Biso   1.000  H
  C40      1.0000 0.91570  0.52461  0.50880  Biso   1.000  C
  C41      1.0000 0.04069  0.35967  0.61161  Biso   1.000  C
  C42      1.0000 0.97620  0.31338  0.55470  Biso   1.000  C
  H39      1.0000 0.85533  0.59205  0.66335  Biso   1.000  H
  C43      1.0000 0.93352  0.50957  0.66041  Biso   1.000  C
  H40      1.0000 0.00496  0.42992  0.64969  Biso   1.000  H
  C44      1.0000 0.53579  0.28172  0.68920  Biso   1.000  C
  O8       1.0000 0.61886  0.11590  0.69719  Biso   1.000  O
  C45      1.0000 0.63703  0.07078  0.65760  Biso   1.000  C
  C46      1.0000 0.65553  0.02831  0.61580  Biso   1.000  C
  C47      1.0000 0.58673  0.08688  0.58440  Biso   1.000  C
  H41      1.0000 0.51544  0.16577  0.59480  Biso   1.000  H
  H42      1.0000 0.94596  0.55903  0.49909  Biso   1.000  H
  H43      1.0000 0.92348  0.46987  0.50342  Biso   1.000  H
  C48      1.0000 0.83759  0.54646  0.50360  Biso   1.000  C
  O9       1.0000 0.99862  0.29858  0.62270  Biso   1.000  O
  H44      1.0000 0.07379  0.38358  0.62320  Biso   1.000  H
  H45      1.0000 0.06785  0.33793  0.59823  Biso   1.000  H
  H46      1.0000 0.96876  0.27825  0.56846  Biso   1.000  H
  H47      1.0000 0.92988  0.32466  0.54716  Biso   1.000  H
  C49      1.0000 0.02474  0.27496  0.53709  Biso   1.000  C
  H48      1.0000 0.94548  0.50687  0.67681  Biso   1.000  H
  H49      1.0000 0.58212  0.27373  0.69711  Biso   1.000  H
  H50      1.0000 0.54259  0.31597  0.67525  Biso   1.000  H
  C50      1.0000 0.48279  0.32301  0.70730  Biso   1.000  C
  C51      1.0000 0.56917  0.07901  0.71130  Biso   1.000  C
  C52      1.0000 0.57417  0.07102  0.71121  Biso   1.000  C
  C53      1.0000 0.69794  0.02279  0.66619  Biso   1.000  C
  C54      1.0000 0.63885  0.03148  0.59210  Biso   1.000  C
  H51      1.0000 0.69264  0.99448  0.62095  Biso   1.000  H
  H52      1.0000 0.57666  0.09281  0.56794  Biso   1.000  H
  H53      1.0000 0.82816  0.59951  0.51004  Biso   1.000  H
  H54      1.0000 0.80664  0.50887  0.51192  Biso   1.000  H
  C55      1.0000 0.81969  0.54547  0.47729  Biso   1.000  C
  C56      1.0000 0.04129  0.23737  0.63380  Biso   1.000  C
  H55      1.0000 0.00134  0.22768  0.53056  Biso   1.000  H
  H56      1.0000 0.03246  0.31185  0.52380  Biso   1.000  H
  C57      1.0000 0.09637  0.25129  0.54760  Biso   1.000  C
  H57      1.0000 0.50606  0.36936  0.71449  Biso   1.000  H
  H58      1.0000 0.47147  0.28583  0.72019  Biso   1.000  H
  C58      1.0000 0.41386  0.34898  0.69470  Biso   1.000  C
  H59      1.0000 0.53254  0.11637  0.71621  Biso   1.000  H
  H60      1.0000 0.54668  0.03489  0.70262  Biso   1.000  H
  C59      1.0000 0.61215  0.04699  0.73370  Biso   1.000  C
  H61      1.0000 0.52514  0.07942  0.70565  Biso   1.000  H
  H62      1.0000 0.58572  0.01486  0.70894  Biso   1.000  H
  C60      1.0000 0.57989  0.09199  0.73851  Biso   1.000  C
  O10      1.0000 0.76025  0.06238  0.65916  Biso   1.000  O
  H63      1.0000 0.69687  0.01774  0.68373  Biso   1.000  H
  H64      1.0000 0.69601  0.96951  0.65918  Biso   1.000  H
  H65      1.0000 0.66126  0.99789  0.58104  Biso   1.000  H
  H66      1.0000 0.77006  0.55956  0.47490  Biso   1.000  H
  H67      1.0000 0.82802  0.49272  0.47094  Biso   1.000  H
  H68      1.0000 0.84955  0.58341  0.46906  Biso   1.000  H
  C61      1.0000 0.99005  0.17728  0.64211  Biso   1.000  C
  H69      1.0000 0.07417  0.21423  0.62224  Biso   1.000  H
  H70      1.0000 0.06905  0.25881  0.64734  Biso   1.000  H
  H71      1.0000 0.11619  0.29629  0.55666  Biso   1.000  H
  H72      1.0000 0.08947  0.20759  0.55898  Biso   1.000  H
  C62      1.0000 0.14978  0.22562  0.52900  Biso   1.000  C
  H73      1.0000 0.42554  0.37065  0.67896  Biso   1.000  H
  H74      1.0000 0.39249  0.39192  0.70407  Biso   1.000  H
  C63      1.0000 0.35987  0.28501  0.69140  Biso   1.000  C
  H75      1.0000 0.65997  0.02972  0.72921  Biso   1.000  H
  H76      1.0000 0.58728  0.00300  0.74130  Biso   1.000  H
  C64      1.0000 0.61618  0.12101  0.75070  Biso   1.000  C
  C65      1.0000 0.66046  0.07601  0.74470  Biso   1.000  C
  H77      1.0000 0.67792  0.02855  0.73625  Biso   1.000  H
  H78      1.0000 0.56993  0.14767  0.75138  Biso   1.000  H
  H79      1.0000 0.56726  0.14703  0.74153  Biso   1.000  H
  H80      1.0000 0.54882  0.05710  0.74797  Biso   1.000  H
  C66      1.0000 0.82293  0.02332  0.66610  Biso   1.000  C
  C67      1.0000 0.97296  0.17129  0.66591  Biso   1.000  C
  C68      1.0000 0.95436  0.12870  0.62540  Biso   1.000  C
  H81      1.0000 0.19426  0.21123  0.53690  Biso   1.000  H
  H82      1.0000 0.15796  0.26897  0.51792  Biso   1.000  H
  H83      1.0000 0.13118  0.18016  0.52025  Biso   1.000  H
  H84      1.0000 0.31796  0.30616  0.68336  Biso   1.000  H
  H85      1.0000 0.34671  0.26386  0.70693  Biso   1.000  H
  H86      1.0000 0.37981  0.24254  0.68176  Biso   1.000  H
  H87      1.0000 0.65221  0.15848  0.74540  Biso   1.000  H
  C69      1.0000 0.63718  0.08300  0.77561  Biso   1.000  C
  H88      1.0000 0.69006  0.12130  0.74053  Biso   1.000  H
  C70      1.0000 0.65918  0.06197  0.77250  Biso   1.000  C
  H89      1.0000 0.82503  0.01692  0.68357  Biso   1.000  H
  C71      1.0000 0.88283  0.07319  0.65790  Biso   1.000  C
  H90      1.0000 0.82510  0.97063  0.65870  Biso   1.000  H
  C72      1.0000 0.91894  0.12118  0.67351  Biso   1.000  C
  O11      1.0000 0.00856  0.21769  0.68330  Biso   1.000  O
  C73      1.0000 0.96841  0.13311  0.60061  Biso   1.000  C
  C74      1.0000 0.90014  0.07677  0.63320  Biso   1.000  C
  H91      1.0000 0.64063  0.12512  0.78754  Biso   1.000  H
  H92      1.0000 0.68229  0.05645  0.77435  Biso   1.000  H
  H93      1.0000 0.60059  0.04576  0.78028  Biso   1.000  H
  H94      1.0000 0.62898  0.01692  0.77610  Biso   1.000  H
  H95      1.0000 0.64101  0.10891  0.78035  Biso   1.000  H
  H96      1.0000 0.70733  0.05128  0.77836  Biso   1.000  H
  O12      1.0000 0.89883  0.12242  0.69692  Biso   1.000  O
  C75      1.0000 0.98155  0.28801  0.69021  Biso   1.000  C
  C76      1.0000 0.96214  0.28501  0.68980  Biso   1.000  C
  C77      1.0000 0.93413  0.08682  0.58481  Biso   1.000  C
  H97      1.0000 0.00275  0.16935  0.59516  Biso   1.000  H
  C78      1.0000 0.86443  0.02937  0.61580  Biso   1.000  C
  C79      1.0000 0.94447  0.08042  0.71350  Biso   1.000  C
  H98      1.0000 0.97070  0.32119  0.67620  Biso   1.000  H
  H99      1.0000 0.93777  0.28013  0.69924  Biso   1.000  H
  H100     1.0000 0.94695  0.31479  0.67546  Biso   1.000  H
  C80      1.0000 0.03971  0.32719  0.70620  Biso   1.000  C
  C81      1.0000 0.00919  0.33500  0.70601  Biso   1.000  C
  H101     1.0000 0.91959  0.26651  0.69816  Biso   1.000  H
  H102     1.0000 0.94547  0.09023  0.56844  Biso   1.000  H
  C82      1.0000 0.88084  0.03260  0.59221  Biso   1.000  C
  H103     1.0000 0.82843  0.99460  0.62082  Biso   1.000  H
  H104     1.0000 0.95544  0.02743  0.70730  Biso   1.000  H
  H105     1.0000 0.98926  0.10938  0.71591  Biso   1.000  H
  C83      1.0000 0.90538  0.07407  0.73670  Biso   1.000  C
  H106     1.0000 0.04580  0.29564  0.72083  Biso   1.000  H
  H107     1.0000 0.02336  0.38005  0.71089  Biso   1.000  H
  C84      1.0000 0.11178  0.33500  0.69420  Biso   1.000  C
  H108     1.0000 0.05552  0.33999  0.69861  Biso   1.000  H
  C85      1.0000 0.02021  0.30798  0.73160  Biso   1.000  C
  H109     1.0000 0.98824  0.38880  0.70658  Biso   1.000  H
  H110     1.0000 0.85735  0.99965  0.58099  Biso   1.000  H
  H111     1.0000 0.93403  0.04171  0.74777  Biso   1.000  H
  H112     1.0000 0.86078  0.04541  0.73359  Biso   1.000  H
  C86      1.0000 0.88848  0.14697  0.74850  Biso   1.000  C
  H113     1.0000 0.94121  0.06244  0.74914  Biso   1.000  H
  H114     1.0000 0.87497  0.02696  0.73538  Biso   1.000  H
  C87      1.0000 0.86118  0.13698  0.74600  Biso   1.000  C
  H115     1.0000 0.12424  0.28378  0.68725  Biso   1.000  H
  H116     1.0000 0.10680  0.37318  0.68096  Biso   1.000  H
  C88      1.0000 0.17352  0.36202  0.71030  Biso   1.000  C
  H117     1.0000 0.97428  0.30851  0.73973  Biso   1.000  H
  H118     1.0000 0.03627  0.25217  0.73125  Biso   1.000  H
  C89      1.0000 0.07422  0.35497  0.74680  Biso   1.000  C
  H119     1.0000 0.93258  0.17593  0.75211  Biso   1.000  H
  H120     1.0000 0.85921  0.17992  0.73778  Biso   1.000  H
  C90      1.0000 0.84716  0.13199  0.77250  Biso   1.000  C
  H121     1.0000 0.89165  0.18074  0.75127  Biso   1.000  H
  H122     1.0000 0.82967  0.15613  0.73317  Biso   1.000  H
  C91      1.0000 0.81518  0.10703  0.76760  Biso   1.000  C
  H123     1.0000 0.21656  0.36543  0.70097  Biso   1.000  H
  H124     1.0000 0.18033  0.32442  0.72324  Biso   1.000  H
  H125     1.0000 0.16278  0.41406  0.71694  Biso   1.000  H
  H126     1.0000 0.07742  0.33288  0.76279  Biso   1.000  H
  H127     1.0000 0.05820  0.41013  0.74786  Biso   1.000  H
  H128     1.0000 0.12029  0.35362  0.73936  Biso   1.000  H
  H129     1.0000 0.83667  0.18274  0.78003  Biso   1.000  H
  H130     1.0000 0.87638  0.10045  0.78333  Biso   1.000  H
  H131     1.0000 0.80301  0.10438  0.76900  Biso   1.000  H
  H132     1.0000 0.78649  0.15061  0.77339  Biso   1.000  H
  H133     1.0000 0.84670  0.08864  0.78040  Biso   1.000  H
  H134     1.0000 0.78476  0.06409  0.76231  Biso   1.000  H
  C92      1.0000 0.39819  0.48649  0.48950  Biso   1.000  C
  C93      1.0000 0.43291  0.48326  0.46520  Biso   1.000  C
  H135     1.0000 0.34774  0.47274  0.48778  Biso   1.000  H
  H136     1.0000 0.42071  0.44707  0.50012  Biso   1.000  H
  C94      1.0000 0.40493  0.56767  0.50079  Biso   1.000  C
  O13      1.0000 0.38862  0.52919  0.44941  Biso   1.000  O
  H137     1.0000 0.48101  0.50564  0.46607  Biso   1.000  H
  H138     1.0000 0.43600  0.42834  0.45956  Biso   1.000  H
  H139     1.0000 0.45477  0.57654  0.50553  Biso   1.000  H
  H140     1.0000 0.39200  0.60785  0.48885  Biso   1.000  H
  C95      1.0000 0.35914  0.57877  0.52240  Biso   1.000  C
  C96      1.0000 0.40551  0.52291  0.42571  Biso   1.000  C
  H141     1.0000 0.36593  0.63187  0.52877  Biso   1.000  H
  H142     1.0000 0.30952  0.57149  0.51787  Biso   1.000  H
  H143     1.0000 0.37234  0.54006  0.53457  Biso   1.000  H
  C97      1.0000 0.36652  0.47480  0.41059  Biso   1.000  C
  C98      1.0000 0.46011  0.57160  0.41691  Biso   1.000  C
  C99      1.0000 0.38109  0.47721  0.38591  Biso   1.000  C
  C100     1.0000 0.30670  0.42881  0.42060  Biso   1.000  C
  C101     1.0000 0.47250  0.57601  0.39300  Biso   1.000  C
  O14      1.0000 0.50199  0.61149  0.43324  Biso   1.000  O
  C102     1.0000 0.34199  0.42816  0.36941  Biso   1.000  C
  C103     1.0000 0.43237  0.52908  0.37700  Biso   1.000  C
  O15      1.0000 0.24370  0.46857  0.41367  Biso   1.000  O
  H144     1.0000 0.30675  0.37459  0.41423  Biso   1.000  H
  H145     1.0000 0.31090  0.42628  0.43810  Biso   1.000  H
  C104     1.0000 0.52430  0.63598  0.38400  Biso   1.000  C
  C105     1.0000 0.47580  0.68556  0.44080  Biso   1.000  C
  C106     1.0000 0.35498  0.43280  0.34590  Biso   1.000  C
  H146     1.0000 0.30723  0.39286  0.37509  Biso   1.000  H
  C107     1.0000 0.44399  0.53190  0.35221  Biso   1.000  C
  C108     1.0000 0.18089  0.43051  0.42141  Biso   1.000  C
  O16      1.0000 0.48191  0.70048  0.37587  Biso   1.000  O
  H147     1.0000 0.55687  0.65290  0.39690  Biso   1.000  H
  H148     1.0000 0.55226  0.61413  0.37084  Biso   1.000  H
  H149     1.0000 0.43072  0.67769  0.44910  Biso   1.000  H
  H150     1.0000 0.46620  0.71887  0.42669  Biso   1.000  H
  C109     1.0000 0.52680  0.72656  0.45700  Biso   1.000  C
  C110     1.0000 0.40546  0.48408  0.33699  Biso   1.000  C
  H151     1.0000 0.32908  0.40026  0.33520  Biso   1.000  H
  H152     1.0000 0.47835  0.56667  0.34608  Biso   1.000  H
  C111     1.0000 0.12082  0.47756  0.41270  Biso   1.000  C
  H153     1.0000 0.18051  0.42746  0.43895  Biso   1.000  H
  H154     1.0000 0.17819  0.37653  0.41494  Biso   1.000  H
  C112     1.0000 0.52310  0.76380  0.36660  Biso   1.000  C
  H155     1.0000 0.50950  0.78096  0.45917  Biso   1.000  H
  H156     1.0000 0.52486  0.70036  0.47261  Biso   1.000  H
  C113     1.0000 0.59988  0.73150  0.45040  Biso   1.000  C
  H157     1.0000 0.41352  0.48614  0.32036  Biso   1.000  H
  C114     1.0000 0.08433  0.52338  0.42871  Biso   1.000  C
  C115     1.0000 0.10289  0.48250  0.38836  Biso   1.000  C
  H158     1.0000 0.55195  0.74554  0.35318  Biso   1.000  H
  H159     1.0000 0.55482  0.78554  0.37906  Biso   1.000  H
  C116     1.0000 0.47017  0.82548  0.35829  Biso   1.000  C
  H160     1.0000 0.62115  0.77432  0.45999  Biso   1.000  H
  H161     1.0000 0.60071  0.74888  0.43366  Biso   1.000  H
  C117     1.0000 0.64871  0.66236  0.45250  Biso   1.000  C
  H162     1.0000 0.60207  0.77350  0.43831  Biso   1.000  H
  H163     1.0000 0.60991  0.68180  0.44197  Biso   1.000  H
  C118     1.0000 0.66061  0.74501  0.46611  Biso   1.000  C
  O17      1.0000 0.10192  0.52496  0.45250  Biso   1.000  O
  C119     1.0000 0.02950  0.57501  0.42051  Biso   1.000  C
  C120     1.0000 0.13770  0.43568  0.37111  Biso   1.000  C
  C121     1.0000 0.04801  0.53336  0.38020  Biso   1.000  C
  C122     1.0000 0.45339  0.83200  0.33500  Biso   1.000  C
  C123     1.0000 0.43457  0.87218  0.37540  Biso   1.000  C
  H164     1.0000 0.69576  0.67763  0.44717  Biso   1.000  H
  H165     1.0000 0.65140  0.64503  0.46902  Biso   1.000  H
  H166     1.0000 0.63085  0.61936  0.44250  Biso   1.000  H
  H167     1.0000 0.70380  0.74507  0.45679  Biso   1.000  H
  H168     1.0000 0.65541  0.79517  0.47424  Biso   1.000  H
  H169     1.0000 0.66342  0.70236  0.47795  Biso   1.000  H
  C124     1.0000 0.06100  0.46910  0.46600  Biso   1.000  C
  C125     1.0000 0.01098  0.58230  0.39701  Biso   1.000  C
  O18      1.0000 0.99143  0.61578  0.43774  Biso   1.000  O
  H170     1.0000 0.17390  0.40073  0.37619  Biso   1.000  H
  C126     1.0000 0.12039  0.43967  0.34770  Biso   1.000  C
  C127     1.0000 0.03167  0.53589  0.35581  Biso   1.000  C
  O19      1.0000 0.49115  0.78906  0.31796  Biso   1.000  O
  C128     1.0000 0.40040  0.88170  0.32661  Biso   1.000  C
  C129     1.0000 0.38051  0.92657  0.36680  Biso   1.000  C
  C130     1.0000 0.44890  0.86877  0.39960  Biso   1.000  C
  H171     1.0000 0.06882  0.41518  0.46007  Biso   1.000  H
  H172     1.0000 0.01009  0.48132  0.46453  Biso   1.000  H
  C131     1.0000 0.08455  0.47539  0.49121  Biso   1.000  C
  C132     1.0000 0.95961  0.64027  0.38840  Biso   1.000  C
  C133     1.0000 0.02399  0.68656  0.44531  Biso   1.000  C
  H173     1.0000 0.14486  0.40789  0.33666  Biso   1.000  H
  C134     1.0000 0.06667  0.49037  0.33960  Biso   1.000  C
  H174     1.0000 0.99534  0.57002  0.35032  Biso   1.000  H
  C135     1.0000 0.46445  0.71828  0.31079  Biso   1.000  C
  O20      1.0000 0.38139  0.88405  0.30281  Biso   1.000  O
  C136     1.0000 0.36316  0.92916  0.34241  Biso   1.000  C
  C137     1.0000 0.34471  0.97169  0.38421  Biso   1.000  C
  C138     1.0000 0.41352  0.91306  0.41561  Biso   1.000  C
  H175     1.0000 0.48481  0.83423  0.40521  Biso   1.000  H
  H176     1.0000 0.05428  0.44097  0.50092  Biso   1.000  H
  H177     1.0000 0.07676  0.53008  0.49659  Biso   1.000  H
  C139     1.0000 0.16260  0.45348  0.49641  Biso   1.000  C
  O21      1.0000 0.00162  0.70136  0.37729  Biso   1.000  O
  H178     1.0000 0.92646  0.61637  0.37681  Biso   1.000  H
  H179     1.0000 0.93239  0.66207  0.40178  Biso   1.000  H
  H180     1.0000 0.03149  0.72175  0.43155  Biso   1.000  H
  H181     1.0000 0.07036  0.67534  0.45285  Biso   1.000  H
  C140     1.0000 0.97550  0.72498  0.46290  Biso   1.000  C
  H182     1.0000 0.05471  0.49307  0.32320  Biso   1.000  H
  H183     1.0000 0.41812  0.72621  0.30289  Biso   1.000  H
  H184     1.0000 0.45766  0.68403  0.32476  Biso   1.000  H
  C141     1.0000 0.51746  0.67699  0.29271  Biso   1.000  C
  C142     1.0000 0.43108  0.92099  0.28869  Biso   1.000  C
  C143     1.0000 0.42607  0.92898  0.28880  Biso   1.000  C
  C144     1.0000 0.30225  0.97715  0.33380  Biso   1.000  C
  C145     1.0000 0.36140  0.96846  0.40791  Biso   1.000  C
  H185     1.0000 0.30761  0.00552  0.37906  Biso   1.000  H
  H186     1.0000 0.42358  0.90719  0.43205  Biso   1.000  H
  H187     1.0000 0.17208  0.40043  0.48997  Biso   1.000  H
  H188     1.0000 0.19361  0.49107  0.48808  Biso   1.000  H
  C146     1.0000 0.18055  0.45448  0.52270  Biso   1.000  C
  C147     1.0000 0.95900  0.76257  0.36619  Biso   1.000  C
  H189     1.0000 0.99896  0.77232  0.46945  Biso   1.000  H
  H190     1.0000 0.96773  0.68815  0.47621  Biso   1.000  H
  C148     1.0000 0.90393  0.74865  0.45241  Biso   1.000  C
  H191     1.0000 0.49418  0.63058  0.28552  Biso   1.000  H
  H192     1.0000 0.52878  0.71417  0.27982  Biso   1.000  H
  C149     1.0000 0.58638  0.65096  0.30531  Biso   1.000  C
  H193     1.0000 0.46771  0.88358  0.28378  Biso   1.000  H
  H194     1.0000 0.45357  0.96511  0.29739  Biso   1.000  H
  C150     1.0000 0.38804  0.95295  0.26629  Biso   1.000  C
  H195     1.0000 0.47510  0.92058  0.29436  Biso   1.000  H
  H196     1.0000 0.41452  0.98508  0.29107  Biso   1.000  H
  C151     1.0000 0.42036  0.90795  0.26150  Biso   1.000  C
  O22      1.0000 0.23999  0.93756  0.34083  Biso   1.000  O
  H197     1.0000 0.30332  0.98226  0.31628  Biso   1.000  H
  H198     1.0000 0.30423  0.03049  0.34081  Biso   1.000  H
  H199     1.0000 0.33898  0.00211  0.41895  Biso   1.000  H
  H200     1.0000 0.23019  0.44038  0.52511  Biso   1.000  H
  H201     1.0000 0.17223  0.50723  0.52907  Biso   1.000  H
  H202     1.0000 0.15070  0.41659  0.53095  Biso   1.000  H
  C152     1.0000 0.01020  0.82266  0.35790  Biso   1.000  C
  H203     1.0000 0.92607  0.78577  0.37777  Biso   1.000  H
  H204     1.0000 0.93120  0.74113  0.35265  Biso   1.000  H
  H205     1.0000 0.88405  0.70365  0.44335  Biso   1.000  H
  H206     1.0000 0.91083  0.79235  0.44103  Biso   1.000  H
  C153     1.0000 0.85052  0.77438  0.47101  Biso   1.000  C
  H207     1.0000 0.57470  0.62929  0.32105  Biso   1.000  H
  H208     1.0000 0.60776  0.60808  0.29594  Biso   1.000  H
  C154     1.0000 0.64038  0.71499  0.30859  Biso   1.000  C
  H209     1.0000 0.34027  0.97022  0.27078  Biso   1.000  H
  H210     1.0000 0.41297  0.99695  0.25871  Biso   1.000  H
  C155     1.0000 0.38407  0.87899  0.24931  Biso   1.000  C
  C156     1.0000 0.33974  0.92399  0.25531  Biso   1.000  C
  H211     1.0000 0.32227  0.97145  0.26374  Biso   1.000  H
  H212     1.0000 0.43031  0.85227  0.24863  Biso   1.000  H
  H213     1.0000 0.43299  0.85291  0.25848  Biso   1.000  H
  H214     1.0000 0.45137  0.94285  0.25204  Biso   1.000  H
  C157     1.0000 0.17726  0.97668  0.33390  Biso   1.000  C
  C158     1.0000 0.02729  0.82865  0.33410  Biso   1.000  C
  C159     1.0000 0.04588  0.87130  0.37461  Biso   1.000  C
  H215     1.0000 0.80603  0.78871  0.46311  Biso   1.000  H
  H216     1.0000 0.84234  0.73103  0.48207  Biso   1.000  H
  H217     1.0000 0.86912  0.81978  0.47976  Biso   1.000  H
  H218     1.0000 0.68229  0.69384  0.31665  Biso   1.000  H
  H219     1.0000 0.65354  0.73614  0.29308  Biso   1.000  H
  H220     1.0000 0.62043  0.75740  0.31823  Biso   1.000  H
  H221     1.0000 0.34803  0.84152  0.25461  Biso   1.000  H
  C160     1.0000 0.36307  0.91700  0.22440  Biso   1.000  C
  H222     1.0000 0.31019  0.87864  0.25948  Biso   1.000  H
  C161     1.0000 0.34106  0.93797  0.22751  Biso   1.000  C
  H223     1.0000 0.17516  0.98308  0.31642  Biso   1.000  H
  C162     1.0000 0.11737  0.92675  0.34210  Biso   1.000  C
  H224     1.0000 0.17514  0.02943  0.34131  Biso   1.000  H
  C163     1.0000 0.08131  0.87876  0.32650  Biso   1.000  C
  O23      1.0000 0.99168  0.78225  0.31670  Biso   1.000  O
  C164     1.0000 0.10010  0.92317  0.36680  Biso   1.000  C
  C165     1.0000 0.03179  0.86689  0.39940  Biso   1.000  C
  H225     1.0000 0.35962  0.87482  0.21247  Biso   1.000  H
  H226     1.0000 0.31796  0.94355  0.22566  Biso   1.000  H
  H227     1.0000 0.39960  0.95424  0.21972  Biso   1.000  H
  H228     1.0000 0.37121  0.98302  0.22390  Biso   1.000  H
  H229     1.0000 0.35918  0.89104  0.21966  Biso   1.000  H
  H230     1.0000 0.29291  0.94872  0.22163  Biso   1.000  H
  O24      1.0000 0.10136  0.87758  0.30309  Biso   1.000  O
  C166     1.0000 0.01869  0.71199  0.30980  Biso   1.000  C
  C167     1.0000 0.03810  0.71499  0.31021  Biso   1.000  C
  C168     1.0000 0.13582  0.97057  0.38421  Biso   1.000  C
  C169     1.0000 0.06612  0.91318  0.41520  Biso   1.000  C
  H231     1.0000 0.99755  0.83059  0.40485  Biso   1.000  H
  C170     1.0000 0.05577  0.91958  0.28649  Biso   1.000  C
  H232     1.0000 0.02950  0.67875  0.32380  Biso   1.000  H
  H233     1.0000 0.06248  0.71987  0.30075  Biso   1.000  H
  H234     1.0000 0.05329  0.68521  0.32455  Biso   1.000  H
  C171     1.0000 0.96059  0.67276  0.29381  Biso   1.000  C
  C172     1.0000 0.99106  0.66500  0.29400  Biso   1.000  C
  H235     1.0000 0.08065  0.73344  0.30183  Biso   1.000  H
  C173     1.0000 0.11940  0.96740  0.40780  Biso   1.000  C
  H236     1.0000 0.17181  0.00535  0.37917  Biso   1.000  H
  H237     1.0000 0.05478  0.90972  0.43157  Biso   1.000  H
  H238     1.0000 0.04481  0.97251  0.29271  Biso   1.000  H
  H239     1.0000 0.01093  0.89062  0.28410  Biso   1.000  H
  C174     1.0000 0.09486  0.92587  0.26329  Biso   1.000  C
  H240     1.0000 0.95450  0.70436  0.27918  Biso   1.000  H
  H241     1.0000 0.97694  0.61995  0.28910  Biso   1.000  H
  C175     1.0000 0.88847  0.66500  0.30581  Biso   1.000  C
  H242     1.0000 0.94462  0.65995  0.30140  Biso   1.000  H
  C176     1.0000 0.98009  0.69196  0.26840  Biso   1.000  C
  H243     1.0000 0.01201  0.61120  0.29342  Biso   1.000  H
  H244     1.0000 0.14290  0.00029  0.41902  Biso   1.000  H
  H245     1.0000 0.06621  0.95829  0.25223  Biso   1.000  H
  H246     1.0000 0.13947  0.95459  0.26640  Biso   1.000  H
  C177     1.0000 0.11176  0.85297  0.25151  Biso   1.000  C
  H247     1.0000 0.05904  0.93750  0.25087  Biso   1.000  H
  H248     1.0000 0.12522  0.97304  0.26462  Biso   1.000  H
  C178     1.0000 0.13906  0.86296  0.25401  Biso   1.000  C
  H249     1.0000 0.87606  0.71617  0.31276  Biso   1.000  H
  H250     1.0000 0.89350  0.62682  0.31905  Biso   1.000  H
  C179     1.0000 0.82678  0.63798  0.28971  Biso   1.000  C
  H251     1.0000 0.02597  0.69149  0.26028  Biso   1.000  H
  H252     1.0000 0.96398  0.74783  0.26874  Biso   1.000  H
  C180     1.0000 0.92602  0.64497  0.25319  Biso   1.000  C
  H253     1.0000 0.06766  0.82401  0.24789  Biso   1.000  H
  H254     1.0000 0.14104  0.82008  0.26223  Biso   1.000  H
  C181     1.0000 0.15303  0.86795  0.22751  Biso   1.000  C
  H255     1.0000 0.10859  0.81926  0.24874  Biso   1.000  H
  H256     1.0000 0.17053  0.84387  0.26683  Biso   1.000  H
  C182     1.0000 0.18507  0.89297  0.23241  Biso   1.000  C
  H257     1.0000 0.78369  0.63452  0.29904  Biso   1.000  H
  H258     1.0000 0.81997  0.67552  0.27677  Biso   1.000  H
  H259     1.0000 0.83746  0.58594  0.28307  Biso   1.000  H
  H260     1.0000 0.92288  0.66712  0.23722  Biso   1.000  H
  H261     1.0000 0.94205  0.58981  0.25213  Biso   1.000  H
  H262     1.0000 0.87990  0.64632  0.26065  Biso   1.000  H
  H263     1.0000 0.16358  0.81726  0.21996  Biso   1.000  H
  H264     1.0000 0.12386  0.89955  0.21668  Biso   1.000  H
  H265     1.0000 0.19718  0.89556  0.23100  Biso   1.000  H
  H266     1.0000 0.21371  0.84933  0.22662  Biso   1.000  H
  H267     1.0000 0.15355  0.91136  0.21961  Biso   1.000  H
  H268     1.0000 0.21548  0.93591  0.23768  Biso   1.000  H
  C183     1.0000 0.64972  0.72556  0.52900  Biso   1.000  C
  C184     1.0000 0.59632  0.75129  0.54760  Biso   1.000  C
  H269     1.0000 0.69421  0.71123  0.53690  Biso   1.000  H
  H270     1.0000 0.65791  0.76891  0.51792  Biso   1.000  H
  H271     1.0000 0.63113  0.68016  0.52025  Biso   1.000  H
  C185     1.0000 0.52474  0.77496  0.53709  Biso   1.000  C
  H272     1.0000 0.61614  0.79629  0.55666  Biso   1.000  H
  H273     1.0000 0.58941  0.70759  0.55898  Biso   1.000  H
  C186     1.0000 0.47625  0.81338  0.55470  Biso   1.000  C
  H274     1.0000 0.50128  0.72762  0.53056  Biso   1.000  H
  H275     1.0000 0.53246  0.81180  0.52380  Biso   1.000  H
  O25      1.0000 0.50882  0.88416  0.56226  Biso   1.000  O
  H276     1.0000 0.46876  0.77820  0.56846  Biso   1.000  H
  H277     1.0000 0.42988  0.82466  0.54716  Biso   1.000  H
  C187     1.0000 0.47075  0.92499  0.57950  Biso   1.000  C
  C188     1.0000 0.41592  0.97656  0.57130  Biso   1.000  C
  C189     1.0000 0.48927  0.91765  0.60300  Biso   1.000  C
  C190     1.0000 0.37943  0.02244  0.58731  Biso   1.000  C
  O26      1.0000 0.39833  0.97498  0.54750  Biso   1.000  O
  C191     1.0000 0.45223  0.96658  0.61979  Biso   1.000  C
  C192     1.0000 0.54064  0.85967  0.61161  Biso   1.000  C
  C193     1.0000 0.31936  0.06955  0.57859  Biso   1.000  C
  C194     1.0000 0.39735  0.01750  0.61165  Biso   1.000  C
  C195     1.0000 0.43924  0.03090  0.53401  Biso   1.000  C
  C196     1.0000 0.46858  0.96405  0.64420  Biso   1.000  C
  O27      1.0000 0.49862  0.79858  0.62270  Biso   1.000  O
  H278     1.0000 0.57379  0.88358  0.62320  Biso   1.000  H
  H279     1.0000 0.56785  0.83793  0.59823  Biso   1.000  H
  O28      1.0000 0.25655  0.03143  0.58633  Biso   1.000  O
  H280     1.0000 0.31974  0.07254  0.56104  Biso   1.000  H
  H281     1.0000 0.32205  0.12347  0.58507  Biso   1.000  H
  C197     1.0000 0.36255  0.06426  0.62890  Biso   1.000  C
  H282     1.0000 0.43143  0.08482  0.53993  Biso   1.000  H
  H283     1.0000 0.49016  0.01868  0.53548  Biso   1.000  H
  C198     1.0000 0.41570  0.02455  0.50880  Biso   1.000  C
  H284     1.0000 0.50491  0.92992  0.64969  Biso   1.000  H
  C199     1.0000 0.43357  0.00963  0.66041  Biso   1.000  C
  C200     1.0000 0.54124  0.73737  0.63380  Biso   1.000  C
  C201     1.0000 0.19355  0.07125  0.57939  Biso   1.000  C
  H285     1.0000 0.32634  0.09927  0.62381  Biso   1.000  H
  C202     1.0000 0.37986  0.06027  0.65229  Biso   1.000  C
  H286     1.0000 0.42348  0.96987  0.50342  Biso   1.000  H
  H287     1.0000 0.44596  0.05898  0.49909  Biso   1.000  H
  C203     1.0000 0.33765  0.04652  0.50360  Biso   1.000  C
  H288     1.0000 0.44553  0.00687  0.67681  Biso   1.000  H
  C204     1.0000 0.49005  0.67728  0.64211  Biso   1.000  C
  H289     1.0000 0.57412  0.71423  0.62224  Biso   1.000  H
  H290     1.0000 0.56899  0.75881  0.64734  Biso   1.000  H
  C205     1.0000 0.13373  0.02520  0.58942  Biso   1.000  C
  H291     1.0000 0.19350  0.12541  0.58577  Biso   1.000  H
  H292     1.0000 0.18935  0.07366  0.56191  Biso   1.000  H
  H293     1.0000 0.35539  0.09205  0.66335  Biso   1.000  H
  H294     1.0000 0.32816  0.09951  0.51004  Biso   1.000  H
  H295     1.0000 0.30664  0.00893  0.51192  Biso   1.000  H
  C206     1.0000 0.31969  0.04547  0.47729  Biso   1.000  C
  C207     1.0000 0.47296  0.67129  0.66591  Biso   1.000  C
  C208     1.0000 0.45436  0.62870  0.62540  Biso   1.000  C
  C209     1.0000 0.09474  0.97709  0.57430  Biso   1.000  C
  C210     1.0000 0.11915  0.02279  0.61410  Biso   1.000  C
  H296     1.0000 0.32802  0.99272  0.47094  Biso   1.000  H
  H297     1.0000 0.27006  0.05956  0.47490  Biso   1.000  H
  H298     1.0000 0.34955  0.08341  0.46906  Biso   1.000  H
  C211     1.0000 0.41894  0.62118  0.67351  Biso   1.000  C
  O29      1.0000 0.50856  0.71769  0.68330  Biso   1.000  O
  C212     1.0000 0.40014  0.57677  0.63320  Biso   1.000  C
  C213     1.0000 0.46846  0.63311  0.60061  Biso   1.000  C
  O30      1.0000 0.11162  0.97075  0.55060  Biso   1.000  O
  C214     1.0000 0.04014  0.92840  0.58310  Biso   1.000  C
  C215     1.0000 0.06788  0.97086  0.62301  Biso   1.000  C
  C216     1.0000 0.15826  0.07178  0.63060  Biso   1.000  C
  C217     1.0000 0.38288  0.57319  0.65790  Biso   1.000  C
  O31      1.0000 0.39888  0.62236  0.69692  Biso   1.000  O
  C218     1.0000 0.48155  0.78801  0.69021  Biso   1.000  C
  C219     1.0000 0.46214  0.78495  0.68980  Biso   1.000  C
  C220     1.0000 0.36443  0.52937  0.61580  Biso   1.000  C
  H299     1.0000 0.50270  0.66935  0.59516  Biso   1.000  H
  C221     1.0000 0.43413  0.58676  0.58481  Biso   1.000  C
  C222     1.0000 0.06733  0.01668  0.53480  Biso   1.000  C
  C223     1.0000 0.02775  0.92399  0.60700  Biso   1.000  C
  O32      1.0000 0.99825  0.88845  0.56677  Biso   1.000  O
  C224     1.0000 0.05626  0.96805  0.64780  Biso   1.000  C
  C225     1.0000 0.14527  0.06720  0.65411  Biso   1.000  C
  H300     1.0000 0.19301  0.10714  0.62491  Biso   1.000  H
  C226     1.0000 0.32299  0.52326  0.66610  Biso   1.000  C
  C227     1.0000 0.44447  0.58036  0.71350  Biso   1.000  C
  H301     1.0000 0.47075  0.82119  0.67620  Biso   1.000  H
  H302     1.0000 0.43782  0.78008  0.69924  Biso   1.000  H
  C228     1.0000 0.53966  0.82719  0.70620  Biso   1.000  C
  H303     1.0000 0.44695  0.81479  0.67546  Biso   1.000  H
  C229     1.0000 0.50919  0.83500  0.70601  Biso   1.000  C
  H304     1.0000 0.41959  0.76651  0.69816  Biso   1.000  H
  C230     1.0000 0.38084  0.53260  0.59221  Biso   1.000  C
  H305     1.0000 0.32843  0.49460  0.62082  Biso   1.000  H
  H306     1.0000 0.44547  0.59023  0.56844  Biso   1.000  H
  C231     1.0000 0.10205  0.01351  0.51050  Biso   1.000  C
  H307     1.0000 0.01924  0.99430  0.53393  Biso   1.000  H
  H308     1.0000 0.06425  0.07160  0.54045  Biso   1.000  H
  C232     1.0000 0.97595  0.86396  0.61599  Biso   1.000  C
  C233     1.0000 0.02445  0.81438  0.55919  Biso   1.000  C
  H309     1.0000 0.02189  0.93327  0.65393  Biso   1.000  H
  C234     1.0000 0.09478  0.01592  0.66300  Biso   1.000  C
  H310     1.0000 0.17116  0.09974  0.66481  Biso   1.000  H
  O33      1.0000 0.26025  0.56238  0.65916  Biso   1.000  O
  H311     1.0000 0.32508  0.51692  0.68357  Biso   1.000  H
  H312     1.0000 0.32510  0.47063  0.65870  Biso   1.000  H
  H313     1.0000 0.45544  0.52743  0.70730  Biso   1.000  H
  H314     1.0000 0.48931  0.60932  0.71591  Biso   1.000  H
  C235     1.0000 0.40538  0.57407  0.73670  Biso   1.000  C
  H315     1.0000 0.54574  0.79558  0.72083  Biso   1.000  H
  H316     1.0000 0.52330  0.87999  0.71089  Biso   1.000  H
  C236     1.0000 0.61178  0.83500  0.69420  Biso   1.000  C
  H317     1.0000 0.55557  0.83999  0.69861  Biso   1.000  H
  C237     1.0000 0.52016  0.80798  0.73160  Biso   1.000  C
  H318     1.0000 0.48824  0.88875  0.70658  Biso   1.000  H
  H319     1.0000 0.35735  0.49965  0.58099  Biso   1.000  H
  C238     1.0000 0.09531  0.93227  0.49920  Biso   1.000  C
  H320     1.0000 0.15251  0.02720  0.51223  Biso   1.000  H
  H321     1.0000 0.07953  0.05298  0.49989  Biso   1.000  H
  O34      1.0000 0.01834  0.79946  0.62412  Biso   1.000  O
  H322     1.0000 0.94337  0.84710  0.60311  Biso   1.000  H
  H323     1.0000 0.94798  0.88587  0.62915  Biso   1.000  H
  H324     1.0000 0.06953  0.82231  0.55090  Biso   1.000  H
  H325     1.0000 0.03404  0.78107  0.57330  Biso   1.000  H
  C239     1.0000 0.97345  0.77338  0.54300  Biso   1.000  C
  H326     1.0000 0.08672  0.01386  0.67965  Biso   1.000  H
  C240     1.0000 0.19799  0.52279  0.66619  Biso   1.000  C
  H327     1.0000 0.43403  0.54171  0.74777  Biso   1.000  H
  H328     1.0000 0.36078  0.54541  0.73359  Biso   1.000  H
  C241     1.0000 0.38848  0.64697  0.74850  Biso   1.000  C
  H329     1.0000 0.44121  0.56244  0.74914  Biso   1.000  H
  H330     1.0000 0.37503  0.52690  0.73538  Biso   1.000  H
  C242     1.0000 0.36118  0.63698  0.74600  Biso   1.000  C
  H331     1.0000 0.62419  0.78378  0.68725  Biso   1.000  H
  H332     1.0000 0.60675  0.87312  0.68096  Biso   1.000  H
  C243     1.0000 0.67347  0.86196  0.71030  Biso   1.000  C
  H333     1.0000 0.47428  0.80851  0.73973  Biso   1.000  H
  H334     1.0000 0.53627  0.75211  0.73125  Biso   1.000  H
  C244     1.0000 0.57417  0.85497  0.74680  Biso   1.000  C
  C245     1.0000 0.14111  0.92117  0.47759  Biso   1.000  C
  H335     1.0000 0.04548  0.92340  0.49448  Biso   1.000  H
  H336     1.0000 0.10825  0.89209  0.51116  Biso   1.000  H
  C246     1.0000 0.97714  0.73620  0.63341  Biso   1.000  C
  H337     1.0000 0.99075  0.71904  0.54082  Biso   1.000  H
  H338     1.0000 0.97538  0.79958  0.52738  Biso   1.000  H
  C247     1.0000 0.90031  0.76850  0.54961  Biso   1.000  C
  C248     1.0000 0.13708  0.57078  0.65760  Biso   1.000  C
  H339     1.0000 0.19601  0.46951  0.65918  Biso   1.000  H
  H340     1.0000 0.19693  0.51774  0.68373  Biso   1.000  H
  H341     1.0000 0.43258  0.67593  0.75211  Biso   1.000  H
  H342     1.0000 0.35921  0.67986  0.73778  Biso   1.000  H
  C249     1.0000 0.34721  0.63199  0.77250  Biso   1.000  C
  H343     1.0000 0.39165  0.68069  0.75127  Biso   1.000  H
  H344     1.0000 0.32972  0.65613  0.73317  Biso   1.000  H
  C250     1.0000 0.31518  0.60697  0.76760  Biso   1.000  C
  H345     1.0000 0.71651  0.86543  0.70097  Biso   1.000  H
  H346     1.0000 0.68028  0.82442  0.72324  Biso   1.000  H
  H347     1.0000 0.66278  0.91406  0.71694  Biso   1.000  H
  H348     1.0000 0.57736  0.83288  0.76279  Biso   1.000  H
  H349     1.0000 0.55820  0.91013  0.74786  Biso   1.000  H
  H350     1.0000 0.62034  0.85362  0.73936  Biso   1.000  H
  H351     1.0000 0.13431  0.86813  0.47124  Biso   1.000  H
  H352     1.0000 0.19073  0.92851  0.48214  Biso   1.000  H
  H353     1.0000 0.12790  0.95988  0.46542  Biso   1.000  H
  C251     1.0000 0.03008  0.67446  0.64170  Biso   1.000  C
  H354     1.0000 0.94829  0.75446  0.64683  Biso   1.000  H
  H355     1.0000 0.94538  0.71446  0.62095  Biso   1.000  H
  H356     1.0000 0.87910  0.72562  0.54002  Biso   1.000  H
  H357     1.0000 0.89948  0.75112  0.56635  Biso   1.000  H
  C252     1.0000 0.85153  0.83758  0.54750  Biso   1.000  C
  H358     1.0000 0.89818  0.72645  0.56168  Biso   1.000  H
  H359     1.0000 0.89033  0.81820  0.55802  Biso   1.000  H
  C253     1.0000 0.83964  0.75499  0.53390  Biso   1.000  C
  C254     1.0000 0.09985  0.61830  0.67340  Biso   1.000  C
  C255     1.0000 0.11974  0.57337  0.63320  Biso   1.000  C
  H360     1.0000 0.33667  0.68274  0.78003  Biso   1.000  H
  H361     1.0000 0.37638  0.60045  0.78333  Biso   1.000  H
  H362     1.0000 0.30306  0.60438  0.76900  Biso   1.000  H
  H363     1.0000 0.28654  0.65061  0.77339  Biso   1.000  H
  H364     1.0000 0.34670  0.58864  0.78040  Biso   1.000  H
  H365     1.0000 0.28476  0.56403  0.76231  Biso   1.000  H
  C256     1.0000 0.04686  0.66800  0.66500  Biso   1.000  C
  C257     1.0000 0.06568  0.62776  0.62460  Biso   1.000  C
  H366     1.0000 0.80448  0.82231  0.55282  Biso   1.000  H
  H367     1.0000 0.84885  0.85491  0.53097  Biso   1.000  H
  H368     1.0000 0.86939  0.88058  0.55751  Biso   1.000  H
  H369     1.0000 0.79644  0.75488  0.54320  Biso   1.000  H
  H370     1.0000 0.84483  0.70477  0.52575  Biso   1.000  H
  H371     1.0000 0.83683  0.79758  0.52206  Biso   1.000  H
  O35      1.0000 0.11886  0.61590  0.69719  Biso   1.000  O
  C258     1.0000 0.15553  0.52831  0.61580  Biso   1.000  C
  O36      1.0000 0.00909  0.71088  0.68203  Biso   1.000  O
  C259     1.0000 0.05134  0.63117  0.60041  Biso   1.000  C
  C260     1.0000 0.06917  0.57901  0.71130  Biso   1.000  C
  C261     1.0000 0.07417  0.57096  0.71121  Biso   1.000  C
  H372     1.0000 0.19264  0.49448  0.62095  Biso   1.000  H
  C262     1.0000 0.13885  0.53148  0.59210  Biso   1.000  C
  C263     1.0000 0.03579  0.78166  0.68920  Biso   1.000  C
  C264     1.0000 0.08673  0.58688  0.58440  Biso   1.000  C
  H373     1.0000 0.01544  0.66571  0.59480  Biso   1.000  H
  H374     1.0000 0.03254  0.61637  0.71621  Biso   1.000  H
  H375     1.0000 0.04668  0.53489  0.70262  Biso   1.000  H
  C265     1.0000 0.11220  0.54699  0.73370  Biso   1.000  C
  H376     1.0000 0.02514  0.57936  0.70565  Biso   1.000  H
  H377     1.0000 0.08572  0.51486  0.70894  Biso   1.000  H
  C266     1.0000 0.07989  0.59199  0.73851  Biso   1.000  C
  H378     1.0000 0.16126  0.49783  0.58104  Biso   1.000  H
  H379     1.0000 0.08212  0.77373  0.69711  Biso   1.000  H
  H380     1.0000 0.04259  0.81597  0.67525  Biso   1.000  H
  C267     1.0000 0.98279  0.82296  0.70730  Biso   1.000  C
  H381     1.0000 0.07666  0.59275  0.56794  Biso   1.000  H
  H382     1.0000 0.15997  0.52972  0.72921  Biso   1.000  H
  H383     1.0000 0.08728  0.50300  0.74130  Biso   1.000  H
  C268     1.0000 0.11618  0.62101  0.75070  Biso   1.000  C
  C269     1.0000 0.16051  0.57601  0.74470  Biso   1.000  C
  H384     1.0000 0.17797  0.52849  0.73625  Biso   1.000  H
  H385     1.0000 0.06993  0.64767  0.75138  Biso   1.000  H
  H386     1.0000 0.06726  0.64703  0.74153  Biso   1.000  H
  H387     1.0000 0.04887  0.55710  0.74797  Biso   1.000  H
  H388     1.0000 0.00606  0.86936  0.71449  Biso   1.000  H
  H389     1.0000 0.97141  0.78577  0.72019  Biso   1.000  H
  C270     1.0000 0.91381  0.84898  0.69470  Biso   1.000  C
  H390     1.0000 0.15221  0.65848  0.74540  Biso   1.000  H
  C271     1.0000 0.13718  0.58300  0.77561  Biso   1.000  C
  H391     1.0000 0.19006  0.62130  0.74053  Biso   1.000  H
  C272     1.0000 0.15918  0.56197  0.77250  Biso   1.000  C
  H392     1.0000 0.92554  0.87065  0.67896  Biso   1.000  H
  H393     1.0000 0.89249  0.89192  0.70407  Biso   1.000  H
  C273     1.0000 0.85987  0.78495  0.69140  Biso   1.000  C
  H394     1.0000 0.14063  0.62512  0.78754  Biso   1.000  H
  H395     1.0000 0.18229  0.55645  0.77435  Biso   1.000  H
  H396     1.0000 0.10064  0.54570  0.78028  Biso   1.000  H
  H397     1.0000 0.12903  0.51692  0.77610  Biso   1.000  H
  H398     1.0000 0.14107  0.60891  0.78035  Biso   1.000  H
  H399     1.0000 0.20733  0.55128  0.77836  Biso   1.000  H
  H400     1.0000 0.81796  0.80616  0.68336  Biso   1.000  H
  H401     1.0000 0.84671  0.76386  0.70693  Biso   1.000  H
  H402     1.0000 0.87986  0.74254  0.68176  Biso   1.000  H
  C274     1.0000 0.35052  0.27438  0.47101  Biso   1.000  C
  C275     1.0000 0.40393  0.24871  0.45241  Biso   1.000  C
  H403     1.0000 0.30598  0.28877  0.46311  Biso   1.000  H
  H404     1.0000 0.34234  0.23103  0.48207  Biso   1.000  H
  H405     1.0000 0.36912  0.31984  0.47976  Biso   1.000  H
  C276     1.0000 0.47550  0.22498  0.46290  Biso   1.000  C
  H406     1.0000 0.38410  0.20371  0.44335  Biso   1.000  H
  H407     1.0000 0.41083  0.29235  0.44103  Biso   1.000  H
  C277     1.0000 0.52399  0.18662  0.44531  Biso   1.000  C
  H408     1.0000 0.49891  0.27232  0.46945  Biso   1.000  H
  H409     1.0000 0.46778  0.18815  0.47621  Biso   1.000  H
  O37      1.0000 0.49138  0.11578  0.43774  Biso   1.000  O
  H410     1.0000 0.53149  0.22175  0.43155  Biso   1.000  H
  H411     1.0000 0.57031  0.17534  0.45285  Biso   1.000  H
  C278     1.0000 0.52950  0.07501  0.42051  Biso   1.000  C
  C279     1.0000 0.51098  0.08230  0.39701  Biso   1.000  C
  C280     1.0000 0.58428  0.02338  0.42871  Biso   1.000  C
  C281     1.0000 0.45961  0.14027  0.38840  Biso   1.000  C
  C282     1.0000 0.54796  0.03342  0.38020  Biso   1.000  C
  O38      1.0000 0.60192  0.02502  0.45250  Biso   1.000  O
  C283     1.0000 0.62077  0.97762  0.41270  Biso   1.000  C
  O39      1.0000 0.50157  0.20142  0.37729  Biso   1.000  O
  H412     1.0000 0.42646  0.11637  0.37681  Biso   1.000  H
  H413     1.0000 0.43239  0.16207  0.40178  Biso   1.000  H
  C284     1.0000 0.53167  0.03589  0.35581  Biso   1.000  C
  C285     1.0000 0.60289  0.98250  0.38836  Biso   1.000  C
  C286     1.0000 0.56100  0.96910  0.46600  Biso   1.000  C
  C287     1.0000 0.68089  0.93051  0.42141  Biso   1.000  C
  C288     1.0000 0.45900  0.26257  0.36619  Biso   1.000  C
  H414     1.0000 0.49534  0.07002  0.35032  Biso   1.000  H
  C289     1.0000 0.56667  0.99043  0.33960  Biso   1.000  C
  C290     1.0000 0.63770  0.93568  0.37111  Biso   1.000  C
  H415     1.0000 0.56882  0.91518  0.46007  Biso   1.000  H
  H416     1.0000 0.51009  0.98138  0.46453  Biso   1.000  H
  C291     1.0000 0.58450  0.97539  0.49121  Biso   1.000  C
  O40      1.0000 0.74370  0.96857  0.41367  Biso   1.000  O
  H417     1.0000 0.68045  0.92746  0.43895  Biso   1.000  H
  H418     1.0000 0.67819  0.87653  0.41494  Biso   1.000  H
  C292     1.0000 0.51020  0.32266  0.35790  Biso   1.000  C
  H419     1.0000 0.42607  0.28577  0.37777  Biso   1.000  H
  H420     1.0000 0.43125  0.24119  0.35265  Biso   1.000  H
  C293     1.0000 0.62039  0.93967  0.34770  Biso   1.000  C
  H421     1.0000 0.55471  0.99313  0.32320  Biso   1.000  H
  H422     1.0000 0.67385  0.90073  0.37619  Biso   1.000  H
  H423     1.0000 0.57676  0.03013  0.49659  Biso   1.000  H
  H424     1.0000 0.55423  0.94097  0.50092  Biso   1.000  H
  C294     1.0000 0.66260  0.95348  0.49641  Biso   1.000  C
  C295     1.0000 0.80670  0.92881  0.42060  Biso   1.000  C
  C296     1.0000 0.52729  0.32871  0.33410  Biso   1.000  C
  C297     1.0000 0.54588  0.37130  0.37461  Biso   1.000  C
  H425     1.0000 0.64486  0.90795  0.33666  Biso   1.000  H
  H426     1.0000 0.67208  0.90043  0.48997  Biso   1.000  H
  H427     1.0000 0.69361  0.99113  0.48808  Biso   1.000  H
  C298     1.0000 0.68050  0.95448  0.52270  Biso   1.000  C
  H428     1.0000 0.80675  0.87465  0.41423  Biso   1.000  H
  H429     1.0000 0.81090  0.92628  0.43810  Biso   1.000  H
  C299     1.0000 0.86646  0.97480  0.41059  Biso   1.000  C
  O41      1.0000 0.49168  0.28231  0.31670  Biso   1.000  O
  C300     1.0000 0.58125  0.37882  0.32650  Biso   1.000  C
  C301     1.0000 0.60010  0.42317  0.36680  Biso   1.000  C
  C302     1.0000 0.53179  0.36689  0.39940  Biso   1.000  C
  H430     1.0000 0.67223  0.00723  0.52907  Biso   1.000  H
  H431     1.0000 0.73014  0.94038  0.52511  Biso   1.000  H
  H432     1.0000 0.65070  0.91659  0.53095  Biso   1.000  H
  C303     1.0000 0.90551  0.02291  0.42571  Biso   1.000  C
  C304     1.0000 0.88109  0.97721  0.38591  Biso   1.000  C
  C305     1.0000 0.51869  0.21199  0.30980  Biso   1.000  C
  C306     1.0000 0.53805  0.21499  0.31021  Biso   1.000  C
  O42      1.0000 0.60136  0.37758  0.30309  Biso   1.000  O
  C307     1.0000 0.61737  0.42681  0.34210  Biso   1.000  C
  C308     1.0000 0.63576  0.47057  0.38421  Biso   1.000  C
  H433     1.0000 0.49755  0.33065  0.40485  Biso   1.000  H
  C309     1.0000 0.56612  0.41318  0.41520  Biso   1.000  C
  C310     1.0000 0.96011  0.07160  0.41691  Biso   1.000  C
  O43      1.0000 0.88857  0.02919  0.44941  Biso   1.000  O
  C311     1.0000 0.93237  0.02908  0.37700  Biso   1.000  C
  C312     1.0000 0.84199  0.92822  0.36941  Biso   1.000  C
  C313     1.0000 0.46059  0.17281  0.29381  Biso   1.000  C
  H434     1.0000 0.52950  0.17875  0.32380  Biso   1.000  H
  H435     1.0000 0.56243  0.21987  0.30075  Biso   1.000  H
  H436     1.0000 0.55329  0.18521  0.32455  Biso   1.000  H
  C314     1.0000 0.49106  0.16500  0.29400  Biso   1.000  C
  H437     1.0000 0.58060  0.23349  0.30183  Biso   1.000  H
  C315     1.0000 0.55577  0.41958  0.28649  Biso   1.000  C
  C316     1.0000 0.67726  0.47668  0.33390  Biso   1.000  C
  C317     1.0000 0.61940  0.46740  0.40780  Biso   1.000  C
  H438     1.0000 0.67181  0.50535  0.37917  Biso   1.000  H
  H439     1.0000 0.55473  0.40972  0.43157  Biso   1.000  H
  C318     1.0000 0.97250  0.07601  0.39300  Biso   1.000  C
  O44      1.0000 0.00205  0.11149  0.43324  Biso   1.000  O
  C319     1.0000 0.93291  0.98332  0.46520  Biso   1.000  C
  C320     1.0000 0.94399  0.03190  0.35221  Biso   1.000  C
  C321     1.0000 0.85498  0.93280  0.34590  Biso   1.000  C
  H440     1.0000 0.80718  0.89286  0.37509  Biso   1.000  H
  C322     1.0000 0.38847  0.16500  0.30581  Biso   1.000  C
  H441     1.0000 0.44467  0.16001  0.30140  Biso   1.000  H
  H442     1.0000 0.45450  0.20436  0.27918  Biso   1.000  H
  H443     1.0000 0.47694  0.11995  0.28910  Biso   1.000  H
  C323     1.0000 0.48003  0.19202  0.26840  Biso   1.000  C
  H444     1.0000 0.51201  0.11120  0.29342  Biso   1.000  H
  H445     1.0000 0.54481  0.47251  0.29271  Biso   1.000  H
  H446     1.0000 0.51093  0.39062  0.28410  Biso   1.000  H
  C324     1.0000 0.59486  0.42587  0.26329  Biso   1.000  C
  O45      1.0000 0.73999  0.43756  0.34083  Biso   1.000  O
  H447     1.0000 0.67516  0.48308  0.31642  Biso   1.000  H
  H448     1.0000 0.67514  0.52937  0.34131  Biso   1.000  H
  H449     1.0000 0.64290  0.50035  0.41902  Biso   1.000  H
  C325     1.0000 0.02435  0.13598  0.38400  Biso   1.000  C
  C326     1.0000 0.97580  0.18562  0.44080  Biso   1.000  C
  H450     1.0000 0.98096  0.00570  0.46607  Biso   1.000  H
  H451     1.0000 0.93595  0.92834  0.45956  Biso   1.000  H
  C327     1.0000 0.89819  0.98649  0.48950  Biso   1.000  C
  H452     1.0000 0.97830  0.06667  0.34608  Biso   1.000  H
  C328     1.0000 0.90546  0.98408  0.33699  Biso   1.000  C
  H453     1.0000 0.82908  0.90026  0.33520  Biso   1.000  H
  C329     1.0000 0.32678  0.13798  0.28971  Biso   1.000  C
  H454     1.0000 0.37600  0.21617  0.31276  Biso   1.000  H
  H455     1.0000 0.39350  0.12682  0.31905  Biso   1.000  H
  H456     1.0000 0.52591  0.19149  0.26028  Biso   1.000  H
  H457     1.0000 0.46398  0.24783  0.26874  Biso   1.000  H
  C330     1.0000 0.42607  0.14497  0.25319  Biso   1.000  C
  H458     1.0000 0.56621  0.45829  0.25223  Biso   1.000  H
  H459     1.0000 0.63947  0.45459  0.26640  Biso   1.000  H
  C331     1.0000 0.61176  0.35297  0.25151  Biso   1.000  C
  H460     1.0000 0.55904  0.43750  0.25087  Biso   1.000  H
  H461     1.0000 0.62522  0.47304  0.26462  Biso   1.000  H
  C332     1.0000 0.63906  0.36302  0.25401  Biso   1.000  C
  C333     1.0000 0.80225  0.47721  0.33380  Biso   1.000  C
  O46      1.0000 0.98185  0.20048  0.37587  Biso   1.000  O
  H462     1.0000 0.05693  0.15290  0.39690  Biso   1.000  H
  H463     1.0000 0.05231  0.11413  0.37084  Biso   1.000  H
  H464     1.0000 0.93072  0.17769  0.44910  Biso   1.000  H
  H465     1.0000 0.96620  0.21893  0.42669  Biso   1.000  H
  C334     1.0000 0.02685  0.22662  0.45700  Biso   1.000  C
  C335     1.0000 0.90493  0.06767  0.50079  Biso   1.000  C
  H466     1.0000 0.84774  0.97274  0.48778  Biso   1.000  H
  H467     1.0000 0.92066  0.94707  0.50012  Biso   1.000  H
  H468     1.0000 0.91352  0.98620  0.32036  Biso   1.000  H
  H469     1.0000 0.28369  0.13452  0.29904  Biso   1.000  H
  H470     1.0000 0.31997  0.17558  0.27677  Biso   1.000  H
  H471     1.0000 0.33746  0.08594  0.28307  Biso   1.000  H
  H472     1.0000 0.42283  0.16712  0.23722  Biso   1.000  H
  H473     1.0000 0.44205  0.08987  0.25213  Biso   1.000  H
  H474     1.0000 0.37990  0.14638  0.26065  Biso   1.000  H
  H475     1.0000 0.56766  0.32401  0.24789  Biso   1.000  H
  H476     1.0000 0.64104  0.32008  0.26223  Biso   1.000  H
  C336     1.0000 0.65303  0.36801  0.22751  Biso   1.000  C
  H477     1.0000 0.60854  0.31926  0.24874  Biso   1.000  H
  H478     1.0000 0.67053  0.34387  0.26683  Biso   1.000  H
  C337     1.0000 0.68507  0.39297  0.23241  Biso   1.000  C
  C338     1.0000 0.86316  0.42916  0.34241  Biso   1.000  C
  H479     1.0000 0.80423  0.53043  0.34081  Biso   1.000  H
  H480     1.0000 0.80332  0.48226  0.31628  Biso   1.000  H
  C339     1.0000 0.02310  0.26380  0.36660  Biso   1.000  C
  H481     1.0000 0.00955  0.28096  0.45917  Biso   1.000  H
  H482     1.0000 0.02491  0.20036  0.47261  Biso   1.000  H
  C340     1.0000 0.09993  0.23150  0.45040  Biso   1.000  C
  H483     1.0000 0.95477  0.07654  0.50553  Biso   1.000  H
  H484     1.0000 0.89200  0.10791  0.48885  Biso   1.000  H
  C341     1.0000 0.85914  0.07877  0.52240  Biso   1.000  C
  H485     1.0000 0.66358  0.31726  0.21996  Biso   1.000  H
  H486     1.0000 0.62386  0.39955  0.21668  Biso   1.000  H
  H487     1.0000 0.69718  0.39562  0.23100  Biso   1.000  H
  H488     1.0000 0.71371  0.34939  0.22662  Biso   1.000  H
  H489     1.0000 0.65355  0.41136  0.21961  Biso   1.000  H
  H490     1.0000 0.71548  0.43591  0.23768  Biso   1.000  H
  C342     1.0000 0.90034  0.38170  0.32661  Biso   1.000  C
  C343     1.0000 0.88046  0.42657  0.36680  Biso   1.000  C
  C344     1.0000 0.97017  0.32548  0.35829  Biso   1.000  C
  H491     1.0000 0.05200  0.24554  0.35318  Biso   1.000  H
  H492     1.0000 0.05482  0.28554  0.37906  Biso   1.000  H
  H493     1.0000 0.12120  0.27432  0.45999  Biso   1.000  H
  H494     1.0000 0.10077  0.24888  0.43366  Biso   1.000  H
  C345     1.0000 0.14876  0.16242  0.45250  Biso   1.000  C
  H495     1.0000 0.10207  0.27350  0.43831  Biso   1.000  H
  H496     1.0000 0.10991  0.18180  0.44197  Biso   1.000  H
  C346     1.0000 0.16061  0.24501  0.46611  Biso   1.000  C
  H497     1.0000 0.86593  0.13187  0.52877  Biso   1.000  H
  H498     1.0000 0.80952  0.07149  0.51787  Biso   1.000  H
  H499     1.0000 0.87234  0.04012  0.53457  Biso   1.000  H
  O47      1.0000 0.88133  0.38410  0.30281  Biso   1.000  O
  C347     1.0000 0.95334  0.33200  0.33500  Biso   1.000  C
  C348     1.0000 0.84466  0.47169  0.38421  Biso   1.000  C
  C349     1.0000 0.93457  0.37218  0.37540  Biso   1.000  C
  H500     1.0000 0.19581  0.17769  0.44717  Biso   1.000  H
  H501     1.0000 0.15145  0.14503  0.46902  Biso   1.000  H
  H502     1.0000 0.13091  0.11942  0.44250  Biso   1.000  H
  H503     1.0000 0.20380  0.24512  0.45679  Biso   1.000  H
  H504     1.0000 0.15546  0.29517  0.47424  Biso   1.000  H
  H505     1.0000 0.16342  0.20242  0.47795  Biso   1.000  H
  C350     1.0000 0.93108  0.42099  0.28869  Biso   1.000  C
  C351     1.0000 0.92607  0.42898  0.28880  Biso   1.000  C
  O48      1.0000 0.99115  0.28906  0.31796  Biso   1.000  O
  H506     1.0000 0.80761  0.50552  0.37906  Biso   1.000  H
  C352     1.0000 0.86140  0.46852  0.40791  Biso   1.000  C
  C353     1.0000 0.94890  0.36877  0.39960  Biso   1.000  C
  H507     1.0000 0.96766  0.38363  0.28378  Biso   1.000  H
  H508     1.0000 0.95352  0.46511  0.29739  Biso   1.000  H
  C354     1.0000 0.88804  0.45301  0.26629  Biso   1.000  C
  H509     1.0000 0.97510  0.42058  0.29436  Biso   1.000  H
  H510     1.0000 0.91447  0.48508  0.29107  Biso   1.000  H
  C355     1.0000 0.92036  0.40801  0.26150  Biso   1.000  C
  C356     1.0000 0.96445  0.21828  0.31079  Biso   1.000  C
  H511     1.0000 0.83898  0.50211  0.41895  Biso   1.000  H
  C357     1.0000 0.91347  0.41306  0.41561  Biso   1.000  C
  H512     1.0000 0.98476  0.33423  0.40521  Biso   1.000  H
  H513     1.0000 0.84027  0.47022  0.27078  Biso   1.000  H
  H514     1.0000 0.91297  0.49695  0.25871  Biso   1.000  H
  C358     1.0000 0.88402  0.37899  0.24931  Biso   1.000  C
  C359     1.0000 0.83974  0.42399  0.25531  Biso   1.000  C
  H515     1.0000 0.82227  0.47145  0.26374  Biso   1.000  H
  H516     1.0000 0.93031  0.35227  0.24863  Biso   1.000  H
  H517     1.0000 0.93293  0.35291  0.25848  Biso   1.000  H
  H518     1.0000 0.95137  0.44285  0.25204  Biso   1.000  H
  H519     1.0000 0.91812  0.22621  0.30289  Biso   1.000  H
  H520     1.0000 0.95766  0.18403  0.32476  Biso   1.000  H
  C360     1.0000 0.01751  0.17699  0.29271  Biso   1.000  C
  H521     1.0000 0.92358  0.40719  0.43205  Biso   1.000  H
  H522     1.0000 0.84803  0.34152  0.25461  Biso   1.000  H
  C361     1.0000 0.86301  0.41700  0.22440  Biso   1.000  C
  H523     1.0000 0.81013  0.37870  0.25948  Biso   1.000  H
  C362     1.0000 0.84106  0.43797  0.22751  Biso   1.000  C
  H524     1.0000 0.99418  0.13058  0.28552  Biso   1.000  H
  H525     1.0000 0.02878  0.21417  0.27982  Biso   1.000  H
  C363     1.0000 0.08633  0.15102  0.30531  Biso   1.000  C
  H526     1.0000 0.85962  0.37482  0.21247  Biso   1.000  H
  H527     1.0000 0.81796  0.44355  0.22566  Biso   1.000  H
  H528     1.0000 0.89960  0.45424  0.21972  Biso   1.000  H
  H529     1.0000 0.87121  0.48308  0.22390  Biso   1.000  H
  H530     1.0000 0.85918  0.39104  0.21966  Biso   1.000  H
  H531     1.0000 0.79291  0.44872  0.22163  Biso   1.000  H
  H532     1.0000 0.07476  0.12935  0.32105  Biso   1.000  H
  H533     1.0000 0.10776  0.10808  0.29594  Biso   1.000  H
  C364     1.0000 0.14038  0.21499  0.30859  Biso   1.000  C
  H534     1.0000 0.18234  0.19384  0.31665  Biso   1.000  H
  H535     1.0000 0.15354  0.23614  0.29308  Biso   1.000  H
  H536     1.0000 0.12043  0.25740  0.31823  Biso   1.000  H
  C365     1.0000 0.65316  0.63199  0.72750  Biso   1.000  C
  C366     1.0000 0.61189  0.64697  0.75150  Biso   1.000  C
  H537     1.0000 0.66370  0.68274  0.71998  Biso   1.000  H
  H538     1.0000 0.62399  0.60045  0.71668  Biso   1.000  H
  H539     1.0000 0.69730  0.60438  0.73100  Biso   1.000  H
  C367     1.0000 0.63918  0.63698  0.75400  Biso   1.000  C
  H540     1.0000 0.71383  0.65061  0.72662  Biso   1.000  H
  H541     1.0000 0.65367  0.58864  0.71960  Biso   1.000  H
  C368     1.0000 0.59499  0.57407  0.76331  Biso   1.000  C
  H542     1.0000 0.56779  0.67593  0.74790  Biso   1.000  H
  H543     1.0000 0.64116  0.67986  0.76222  Biso   1.000  H
  H544     1.0000 0.60872  0.68069  0.74873  Biso   1.000  H
  H545     1.0000 0.67065  0.65613  0.76684  Biso   1.000  H
  C369     1.0000 0.68519  0.60697  0.73240  Biso   1.000  C
  C370     1.0000 0.55590  0.58036  0.78651  Biso   1.000  C
  H546     1.0000 0.56633  0.54171  0.75223  Biso   1.000  H
  H547     1.0000 0.63959  0.54541  0.76641  Biso   1.000  H
  H548     1.0000 0.55916  0.56244  0.75086  Biso   1.000  H
  H549     1.0000 0.62534  0.52690  0.76462  Biso   1.000  H
  H550     1.0000 0.71560  0.56403  0.73769  Biso   1.000  H
  O49      1.0000 0.60148  0.62236  0.80308  Biso   1.000  O
  H551     1.0000 0.54493  0.52743  0.79270  Biso   1.000  H
  H552     1.0000 0.51106  0.60932  0.78409  Biso   1.000  H
  C371     1.0000 0.58137  0.62118  0.82650  Biso   1.000  C
  C372     1.0000 0.61749  0.57319  0.84210  Biso   1.000  C
  C373     1.0000 0.52741  0.67129  0.83410  Biso   1.000  C
  C374     1.0000 0.67738  0.52326  0.83390  Biso   1.000  C
  C375     1.0000 0.60023  0.57677  0.86681  Biso   1.000  C
  O50      1.0000 0.49180  0.71769  0.81670  Biso   1.000  O
  C376     1.0000 0.51032  0.67728  0.85790  Biso   1.000  C
  O51      1.0000 0.74012  0.56238  0.84084  Biso   1.000  O
  H553     1.0000 0.67529  0.51692  0.81643  Biso   1.000  H
  H554     1.0000 0.67526  0.47063  0.84130  Biso   1.000  H
  C377     1.0000 0.54601  0.62870  0.87460  Biso   1.000  C
  C378     1.0000 0.63594  0.52937  0.88420  Biso   1.000  C
  C379     1.0000 0.51881  0.78801  0.80979  Biso   1.000  C
  C380     1.0000 0.53817  0.78495  0.81020  Biso   1.000  C
  C381     1.0000 0.45913  0.73737  0.86621  Biso   1.000  C
  C382     1.0000 0.80238  0.52279  0.83381  Biso   1.000  C
  C383     1.0000 0.53191  0.63311  0.89940  Biso   1.000  C
  C384     1.0000 0.61953  0.53260  0.90779  Biso   1.000  C
  H555     1.0000 0.67193  0.49460  0.87918  Biso   1.000  H
  H556     1.0000 0.52962  0.82119  0.82380  Biso   1.000  H
  H557     1.0000 0.56255  0.78008  0.80076  Biso   1.000  H
  C385     1.0000 0.46071  0.82719  0.79380  Biso   1.000  C
  H558     1.0000 0.55342  0.81479  0.82455  Biso   1.000  H
  C386     1.0000 0.49118  0.83500  0.79400  Biso   1.000  C
  H559     1.0000 0.58077  0.76651  0.80184  Biso   1.000  H
  O52      1.0000 0.50169  0.79858  0.87730  Biso   1.000  O
  H560     1.0000 0.42625  0.71423  0.87776  Biso   1.000  H
  H561     1.0000 0.43137  0.75881  0.85266  Biso   1.000  H
  C387     1.0000 0.86328  0.57078  0.84240  Biso   1.000  C
  H562     1.0000 0.80435  0.46951  0.84082  Biso   1.000  H
  H563     1.0000 0.80344  0.51774  0.81627  Biso   1.000  H
  H564     1.0000 0.49767  0.66935  0.90485  Biso   1.000  H
  C388     1.0000 0.56624  0.58676  0.91520  Biso   1.000  C
  H565     1.0000 0.64302  0.49965  0.91901  Biso   1.000  H
  H566     1.0000 0.45462  0.79558  0.77918  Biso   1.000  H
  H567     1.0000 0.47706  0.87999  0.78912  Biso   1.000  H
  C389     1.0000 0.38859  0.83500  0.80580  Biso   1.000  C
  H568     1.0000 0.44479  0.83999  0.80140  Biso   1.000  H
  C390     1.0000 0.48021  0.80798  0.76840  Biso   1.000  C
  H569     1.0000 0.51213  0.88875  0.79343  Biso   1.000  H
  C391     1.0000 0.45973  0.85967  0.88841  Biso   1.000  C
  C392     1.0000 0.90047  0.61830  0.82660  Biso   1.000  C
  C393     1.0000 0.88058  0.57337  0.86681  Biso   1.000  C
  H570     1.0000 0.55485  0.59023  0.93156  Biso   1.000  H
  H571     1.0000 0.37618  0.78378  0.81276  Biso   1.000  H
  H572     1.0000 0.39362  0.87312  0.81904  Biso   1.000  H
  C394     1.0000 0.32690  0.86196  0.78970  Biso   1.000  C
  H573     1.0000 0.52609  0.80851  0.76027  Biso   1.000  H
  H574     1.0000 0.46410  0.75211  0.76876  Biso   1.000  H
  C395     1.0000 0.42620  0.85497  0.75321  Biso   1.000  C
  H575     1.0000 0.42658  0.88358  0.87680  Biso   1.000  H
  H576     1.0000 0.43251  0.83793  0.90178  Biso   1.000  H
  C396     1.0000 0.51110  0.91765  0.89700  Biso   1.000  C
  O53      1.0000 0.88151  0.61590  0.80282  Biso   1.000  O
  C397     1.0000 0.95351  0.66800  0.83500  Biso   1.000  C
  C398     1.0000 0.84478  0.52831  0.88420  Biso   1.000  C
  C399     1.0000 0.93469  0.62776  0.87540  Biso   1.000  C
  H577     1.0000 0.28381  0.86543  0.79904  Biso   1.000  H
  H578     1.0000 0.32009  0.82442  0.77676  Biso   1.000  H
  H579     1.0000 0.33758  0.91406  0.78306  Biso   1.000  H
  H580     1.0000 0.42300  0.83288  0.73721  Biso   1.000  H
  H581     1.0000 0.44217  0.91013  0.75214  Biso   1.000  H
  H582     1.0000 0.38003  0.85362  0.76064  Biso   1.000  H
  C400     1.0000 0.52962  0.92499  0.92050  Biso   1.000  C
  C401     1.0000 0.54814  0.96658  0.88021  Biso   1.000  C
  C402     1.0000 0.93120  0.57901  0.78871  Biso   1.000  C
  C403     1.0000 0.92620  0.57096  0.78880  Biso   1.000  C
  O54      1.0000 0.99128  0.71088  0.81798  Biso   1.000  O
  C404     1.0000 0.97029  0.67446  0.85831  Biso   1.000  C
  H583     1.0000 0.80773  0.49448  0.87906  Biso   1.000  H
  C405     1.0000 0.86152  0.53148  0.90790  Biso   1.000  C
  C406     1.0000 0.94902  0.63117  0.89959  Biso   1.000  C
  O55      1.0000 0.49155  0.88416  0.93774  Biso   1.000  O
  C407     1.0000 0.58440  0.97656  0.92871  Biso   1.000  C
  C408     1.0000 0.53179  0.96405  0.85580  Biso   1.000  C
  C409     1.0000 0.60302  0.01750  0.88836  Biso   1.000  C
  H584     1.0000 0.96783  0.61637  0.78379  Biso   1.000  H
  H585     1.0000 0.95369  0.53489  0.79739  Biso   1.000  H
  C410     1.0000 0.88817  0.54699  0.76631  Biso   1.000  C
  H586     1.0000 0.97523  0.57936  0.79435  Biso   1.000  H
  H587     1.0000 0.91464  0.51486  0.79107  Biso   1.000  H
  C411     1.0000 0.92048  0.59199  0.76150  Biso   1.000  C
  C412     1.0000 0.96458  0.78166  0.81081  Biso   1.000  C
  C413     1.0000 0.02322  0.73620  0.86660  Biso   1.000  C
  H588     1.0000 0.83911  0.49783  0.91896  Biso   1.000  H
  C414     1.0000 0.91359  0.58688  0.91561  Biso   1.000  C
  H589     1.0000 0.98488  0.66571  0.90520  Biso   1.000  H
  C415     1.0000 0.52412  0.81338  0.94530  Biso   1.000  C
  O56      1.0000 0.60204  0.97498  0.95251  Biso   1.000  O
  C416     1.0000 0.62094  0.02244  0.91269  Biso   1.000  C
  H590     1.0000 0.49546  0.92992  0.85032  Biso   1.000  H
  C417     1.0000 0.56679  0.00963  0.83960  Biso   1.000  C
  C418     1.0000 0.63782  0.06426  0.87110  Biso   1.000  C
  H591     1.0000 0.84040  0.52972  0.77080  Biso   1.000  H
  H592     1.0000 0.91309  0.50300  0.75871  Biso   1.000  H
  C419     1.0000 0.88419  0.62101  0.74930  Biso   1.000  C
  C420     1.0000 0.83986  0.57601  0.75530  Biso   1.000  C
  H593     1.0000 0.82240  0.52849  0.76375  Biso   1.000  H
  H594     1.0000 0.93043  0.64767  0.74863  Biso   1.000  H
  H595     1.0000 0.93306  0.64703  0.75848  Biso   1.000  H
  H596     1.0000 0.95150  0.55710  0.75203  Biso   1.000  H
  H597     1.0000 0.91824  0.77373  0.80289  Biso   1.000  H
  H598     1.0000 0.95778  0.81597  0.82476  Biso   1.000  H
  C421     1.0000 0.01763  0.82296  0.79270  Biso   1.000  C
  O57      1.0000 0.98198  0.79946  0.87588  Biso   1.000  O
  H599     1.0000 0.05213  0.75446  0.85318  Biso   1.000  H
  H600     1.0000 0.05499  0.71446  0.87906  Biso   1.000  H
  H601     1.0000 0.92370  0.59275  0.93206  Biso   1.000  H
  H602     1.0000 0.53161  0.77820  0.93155  Biso   1.000  H
  H603     1.0000 0.57049  0.82466  0.95285  Biso   1.000  H
  C422     1.0000 0.47563  0.77496  0.96291  Biso   1.000  C
  C423     1.0000 0.56113  0.03090  0.96600  Biso   1.000  C
  C424     1.0000 0.68101  0.06955  0.92141  Biso   1.000  C
  C425     1.0000 0.62051  0.06027  0.84771  Biso   1.000  C
  H604     1.0000 0.55484  0.00687  0.82320  Biso   1.000  H
  H605     1.0000 0.67402  0.09927  0.87620  Biso   1.000  H
  H606     1.0000 0.84816  0.65848  0.75461  Biso   1.000  H
  C426     1.0000 0.86319  0.58300  0.72440  Biso   1.000  C
  H607     1.0000 0.81026  0.62130  0.75947  Biso   1.000  H
  C427     1.0000 0.84118  0.56197  0.72750  Biso   1.000  C
  H608     1.0000 0.99430  0.86936  0.78551  Biso   1.000  H
  H609     1.0000 0.02895  0.78577  0.77981  Biso   1.000  H
  C428     1.0000 0.08656  0.84898  0.80530  Biso   1.000  C
  C429     1.0000 0.02447  0.86396  0.88401  Biso   1.000  C
  H610     1.0000 0.49908  0.72762  0.96944  Biso   1.000  H
  H611     1.0000 0.46790  0.81180  0.97621  Biso   1.000  H
  C430     1.0000 0.40405  0.75129  0.95240  Biso   1.000  C
  H612     1.0000 0.56894  0.08482  0.96007  Biso   1.000  H
  H613     1.0000 0.51021  0.01868  0.96453  Biso   1.000  H
  C431     1.0000 0.58462  0.02455  0.99120  Biso   1.000  C
  O58      1.0000 0.74382  0.03143  0.91367  Biso   1.000  O
  H614     1.0000 0.68063  0.07254  0.93896  Biso   1.000  H
  H615     1.0000 0.67832  0.12347  0.91495  Biso   1.000  H
  H616     1.0000 0.64498  0.09205  0.83665  Biso   1.000  H
  H617     1.0000 0.85974  0.62512  0.71247  Biso   1.000  H
  H618     1.0000 0.81808  0.55645  0.72566  Biso   1.000  H
  H619     1.0000 0.89972  0.54570  0.71973  Biso   1.000  H
  H620     1.0000 0.87134  0.51692  0.72390  Biso   1.000  H
  H621     1.0000 0.85930  0.60891  0.71966  Biso   1.000  H
  H622     1.0000 0.79304  0.55128  0.72165  Biso   1.000  H
  H623     1.0000 0.07488  0.87065  0.82105  Biso   1.000  H
  H624     1.0000 0.10788  0.89192  0.79593  Biso   1.000  H
  C432     1.0000 0.14050  0.78495  0.80861  Biso   1.000  C
  C433     1.0000 0.97262  0.92399  0.89301  Biso   1.000  C
  H625     1.0000 0.05705  0.84710  0.89690  Biso   1.000  H
  H626     1.0000 0.05244  0.88587  0.87086  Biso   1.000  H
  H627     1.0000 0.38423  0.79629  0.94335  Biso   1.000  H
  H628     1.0000 0.41095  0.70759  0.94102  Biso   1.000  H
  C434     1.0000 0.35065  0.72556  0.97100  Biso   1.000  C
  H629     1.0000 0.57688  0.96987  0.99658  Biso   1.000  H
  C435     1.0000 0.66272  0.04652  0.99641  Biso   1.000  C
  H630     1.0000 0.55409  0.05898  0.00091  Biso   1.000  H
  C436     1.0000 0.80682  0.07125  0.92061  Biso   1.000  C
  H631     1.0000 0.18246  0.80616  0.81665  Biso   1.000  H
  H632     1.0000 0.15361  0.76386  0.79307  Biso   1.000  H
  H633     1.0000 0.12056  0.74254  0.81824  Biso   1.000  H
  C437     1.0000 0.96023  0.92840  0.91690  Biso   1.000  C
  C438     1.0000 0.93249  0.97086  0.87700  Biso   1.000  C
  H634     1.0000 0.30616  0.71123  0.96311  Biso   1.000  H
  H635     1.0000 0.34246  0.76891  0.98208  Biso   1.000  H
  H636     1.0000 0.36924  0.68016  0.97976  Biso   1.000  H
  H637     1.0000 0.67220  0.09951  0.98996  Biso   1.000  H
  H638     1.0000 0.69373  0.00893  0.98808  Biso   1.000  H
  C439     1.0000 0.68036  0.04547  0.02271  Biso   1.000  C
  H639     1.0000 0.80687  0.12541  0.91424  Biso   1.000  H
  H640     1.0000 0.81102  0.07366  0.93810  Biso   1.000  H
  C440     1.0000 0.86664  0.02520  0.91058  Biso   1.000  C
  C441     1.0000 0.90563  0.97709  0.92571  Biso   1.000  C
  O59      1.0000 0.00217  0.88845  0.93323  Biso   1.000  O
  C442     1.0000 0.94411  0.96805  0.85220  Biso   1.000  C
  C443     1.0000 0.88121  0.02279  0.88591  Biso   1.000  C
  H641     1.0000 0.67209  0.99272  0.02907  Biso   1.000  H
  H642     1.0000 0.73005  0.05956  0.02511  Biso   1.000  H
  H643     1.0000 0.65056  0.08341  0.03095  Biso   1.000  H
  O60      1.0000 0.88875  0.97075  0.94940  Biso   1.000  O
  C444     1.0000 0.97592  0.81438  0.94081  Biso   1.000  C
  H644     1.0000 0.97842  0.93327  0.84608  Biso   1.000  H
  C445     1.0000 0.90559  0.01592  0.83701  Biso   1.000  C
  C446     1.0000 0.84211  0.07178  0.86940  Biso   1.000  C
  C447     1.0000 0.93304  0.01668  0.96520  Biso   1.000  C
  H645     1.0000 0.93084  0.82231  0.94910  Biso   1.000  H
  H646     1.0000 0.96633  0.78107  0.92670  Biso   1.000  H
  C448     1.0000 0.02697  0.77338  0.95700  Biso   1.000  C
  H647     1.0000 0.91365  0.01386  0.82036  Biso   1.000  H
  C449     1.0000 0.85510  0.06720  0.84590  Biso   1.000  C
  H648     1.0000 0.80730  0.10714  0.87510  Biso   1.000  H
  H649     1.0000 0.98108  0.99430  0.96607  Biso   1.000  H
  H650     1.0000 0.93612  0.07160  0.95956  Biso   1.000  H
  C450     1.0000 0.89831  0.01351  0.98950  Biso   1.000  C
  H651     1.0000 0.00967  0.71904  0.95918  Biso   1.000  H
  H652     1.0000 0.02504  0.79958  0.97262  Biso   1.000  H
  C451     1.0000 0.10005  0.76850  0.95040  Biso   1.000  C
  H653     1.0000 0.82921  0.09974  0.83520  Biso   1.000  H
  C452     1.0000 0.90479  0.93227  0.00081  Biso   1.000  C
  H654     1.0000 0.84786  0.02720  0.98778  Biso   1.000  H
  H655     1.0000 0.92052  0.05298  0.00012  Biso   1.000  H
  H656     1.0000 0.12132  0.72562  0.95998  Biso   1.000  H
  H657     1.0000 0.10089  0.75112  0.93366  Biso   1.000  H
  C453     1.0000 0.14889  0.83758  0.95251  Biso   1.000  C
  H658     1.0000 0.10224  0.72645  0.93833  Biso   1.000  H
  H659     1.0000 0.11003  0.81820  0.94198  Biso   1.000  H
  C454     1.0000 0.16073  0.75499  0.96611  Biso   1.000  C
  H660     1.0000 0.89212  0.89209  0.98884  Biso   1.000  H
  H661     1.0000 0.95463  0.92340  0.00553  Biso   1.000  H
  C455     1.0000 0.85899  0.92117  0.02241  Biso   1.000  C
  H662     1.0000 0.19594  0.82231  0.94718  Biso   1.000  H
  H663     1.0000 0.15158  0.85491  0.96903  Biso   1.000  H
  H664     1.0000 0.13103  0.88058  0.94250  Biso   1.000  H
  H665     1.0000 0.20392  0.75488  0.95680  Biso   1.000  H
  H666     1.0000 0.15559  0.70477  0.97425  Biso   1.000  H
  H667     1.0000 0.16359  0.79758  0.97794  Biso   1.000  H
  H668     1.0000 0.86579  0.86813  0.02876  Biso   1.000  H
  H669     1.0000 0.80938  0.92851  0.01787  Biso   1.000  H
  H670     1.0000 0.87220  0.95988  0.03459  Biso   1.000  H
  C456     1.0000 0.34704  0.36801  0.27251  Biso   1.000  C
  C457     1.0000 0.36106  0.36302  0.24600  Biso   1.000  C
  C458     1.0000 0.38836  0.35297  0.24851  Biso   1.000  C
  H671     1.0000 0.33655  0.31726  0.28003  Biso   1.000  H
  H672     1.0000 0.37626  0.39955  0.28333  Biso   1.000  H
  H673     1.0000 0.30289  0.39562  0.26901  Biso   1.000  H
  H674     1.0000 0.28642  0.34939  0.27338  Biso   1.000  H
  H675     1.0000 0.34657  0.41136  0.28040  Biso   1.000  H
  C459     1.0000 0.40526  0.42587  0.23670  Biso   1.000  C
  H676     1.0000 0.35909  0.32008  0.23779  Biso   1.000  H
  H677     1.0000 0.39153  0.31926  0.25126  Biso   1.000  H
  H678     1.0000 0.32954  0.34387  0.23317  Biso   1.000  H
  C460     1.0000 0.31506  0.39297  0.26761  Biso   1.000  C
  H679     1.0000 0.43246  0.32401  0.25211  Biso   1.000  H
  C461     1.0000 0.44435  0.41958  0.21350  Biso   1.000  C
  H680     1.0000 0.43391  0.45829  0.24776  Biso   1.000  H
  H681     1.0000 0.36065  0.45459  0.23360  Biso   1.000  H
  H682     1.0000 0.44108  0.43750  0.24915  Biso   1.000  H
  H683     1.0000 0.37485  0.47304  0.23537  Biso   1.000  H
  H684     1.0000 0.28464  0.43591  0.26232  Biso   1.000  H
  O61      1.0000 0.39876  0.37758  0.19691  Biso   1.000  O
  H685     1.0000 0.45532  0.47251  0.20729  Biso   1.000  H
  H686     1.0000 0.48914  0.39062  0.21592  Biso   1.000  H
  C462     1.0000 0.41882  0.37882  0.17349  Biso   1.000  C
  C463     1.0000 0.38271  0.42681  0.15791  Biso   1.000  C
  C464     1.0000 0.47283  0.32871  0.16590  Biso   1.000  C
  C465     1.0000 0.32281  0.47668  0.16611  Biso   1.000  C
  C466     1.0000 0.40002  0.42317  0.13320  Biso   1.000  C
  O62      1.0000 0.50844  0.28231  0.18331  Biso   1.000  O
  C467     1.0000 0.48992  0.32266  0.14209  Biso   1.000  C
  O63      1.0000 0.26013  0.43756  0.15917  Biso   1.000  O
  H687     1.0000 0.32491  0.48308  0.18358  Biso   1.000  H
  H688     1.0000 0.32498  0.52937  0.15869  Biso   1.000  H
  C468     1.0000 0.45424  0.37130  0.12541  Biso   1.000  C
  C469     1.0000 0.36431  0.47057  0.11580  Biso   1.000  C
  C470     1.0000 0.48143  0.21199  0.19020  Biso   1.000  C
  C471     1.0000 0.46202  0.21499  0.18981  Biso   1.000  C
  C472     1.0000 0.54112  0.26257  0.13380  Biso   1.000  C
  C473     1.0000 0.19782  0.47721  0.16620  Biso   1.000  C
  C474     1.0000 0.46834  0.36689  0.10059  Biso   1.000  C
  C475     1.0000 0.38072  0.46740  0.09220  Biso   1.000  C
  H689     1.0000 0.32831  0.50535  0.12083  Biso   1.000  H
  H690     1.0000 0.47063  0.17875  0.17621  Biso   1.000  H
  H691     1.0000 0.43764  0.21987  0.19925  Biso   1.000  H
  C476     1.0000 0.53953  0.17281  0.20621  Biso   1.000  C
  H692     1.0000 0.44683  0.18521  0.17546  Biso   1.000  H
  C477     1.0000 0.50901  0.16500  0.20599  Biso   1.000  C
  H693     1.0000 0.41947  0.23349  0.19817  Biso   1.000  H
  O64      1.0000 0.49850  0.20142  0.12271  Biso   1.000  O
  H694     1.0000 0.57400  0.28577  0.12223  Biso   1.000  H
  H695     1.0000 0.56887  0.24119  0.14735  Biso   1.000  H
  C478     1.0000 0.13696  0.42916  0.15761  Biso   1.000  C
  H696     1.0000 0.19589  0.53043  0.15919  Biso   1.000  H
  H697     1.0000 0.19680  0.48226  0.18374  Biso   1.000  H
  H698     1.0000 0.50257  0.33065  0.09514  Biso   1.000  H
  C479     1.0000 0.43401  0.41318  0.08479  Biso   1.000  C
  H699     1.0000 0.35723  0.50035  0.08098  Biso   1.000  H
  H700     1.0000 0.54562  0.20436  0.22082  Biso   1.000  H
  H701     1.0000 0.52318  0.11995  0.21089  Biso   1.000  H
  C480     1.0000 0.61166  0.16500  0.19421  Biso   1.000  C
  H702     1.0000 0.55545  0.16001  0.19861  Biso   1.000  H
  C481     1.0000 0.52004  0.19202  0.23161  Biso   1.000  C
  H703     1.0000 0.48812  0.11120  0.20658  Biso   1.000  H
  C482     1.0000 0.54051  0.14027  0.11160  Biso   1.000  C
  C483     1.0000 0.09973  0.38170  0.17340  Biso   1.000  C
  C484     1.0000 0.11961  0.42657  0.13320  Biso   1.000  C
  H704     1.0000 0.44534  0.40972  0.06843  Biso   1.000  H
  H705     1.0000 0.62407  0.21617  0.18725  Biso   1.000  H
  H706     1.0000 0.60663  0.12682  0.18097  Biso   1.000  H
  C485     1.0000 0.67335  0.13798  0.21031  Biso   1.000  C
  H707     1.0000 0.47416  0.19149  0.23974  Biso   1.000  H
  H708     1.0000 0.53615  0.24783  0.23125  Biso   1.000  H
  C486     1.0000 0.57405  0.14497  0.24680  Biso   1.000  C
  H709     1.0000 0.57367  0.11637  0.12319  Biso   1.000  H
  H710     1.0000 0.56773  0.16207  0.09821  Biso   1.000  H
  C487     1.0000 0.48909  0.08230  0.10301  Biso   1.000  C
  O65      1.0000 0.11874  0.38410  0.19719  Biso   1.000  O
  C488     1.0000 0.04673  0.33200  0.16501  Biso   1.000  C
  C489     1.0000 0.15541  0.47169  0.11580  Biso   1.000  C
  C490     1.0000 0.06551  0.37218  0.12461  Biso   1.000  C
  H711     1.0000 0.71638  0.13452  0.20097  Biso   1.000  H
  H712     1.0000 0.68015  0.17558  0.22325  Biso   1.000  H
  H713     1.0000 0.66266  0.08594  0.21695  Biso   1.000  H
  H714     1.0000 0.57724  0.16712  0.26280  Biso   1.000  H
  H715     1.0000 0.55807  0.08987  0.24787  Biso   1.000  H
  H716     1.0000 0.62017  0.14638  0.23937  Biso   1.000  H
  C491     1.0000 0.47062  0.07501  0.07950  Biso   1.000  C
  C492     1.0000 0.45211  0.03342  0.11980  Biso   1.000  C
  C493     1.0000 0.06905  0.42099  0.21130  Biso   1.000  C
  C494     1.0000 0.07405  0.42898  0.21120  Biso   1.000  C
  O66      1.0000 0.00897  0.28906  0.18203  Biso   1.000  O
  C495     1.0000 0.02996  0.32548  0.14170  Biso   1.000  C
  H717     1.0000 0.19251  0.50552  0.12093  Biso   1.000  H
  C496     1.0000 0.13873  0.46852  0.09211  Biso   1.000  C
  C497     1.0000 0.05122  0.36877  0.10040  Biso   1.000  C
  O67      1.0000 0.50869  0.11578  0.06227  Biso   1.000  O
  C498     1.0000 0.41579  0.02338  0.07130  Biso   1.000  C
  C499     1.0000 0.46840  0.03589  0.14420  Biso   1.000  C
  C500     1.0000 0.39723  0.98250  0.11163  Biso   1.000  C
  H718     1.0000 0.03241  0.38363  0.21622  Biso   1.000  H
  H719     1.0000 0.04655  0.46511  0.20260  Biso   1.000  H
  C501     1.0000 0.11208  0.45301  0.23370  Biso   1.000  C
  H720     1.0000 0.02502  0.42058  0.20566  Biso   1.000  H
  H721     1.0000 0.08560  0.48508  0.20894  Biso   1.000  H
  C502     1.0000 0.07976  0.40801  0.23850  Biso   1.000  C
  C503     1.0000 0.03567  0.21828  0.18920  Biso   1.000  C
  C504     1.0000 0.97702  0.26380  0.13339  Biso   1.000  C
  H722     1.0000 0.16114  0.50211  0.08105  Biso   1.000  H
  C505     1.0000 0.08660  0.41306  0.08440  Biso   1.000  C
  H723     1.0000 0.01531  0.33423  0.09481  Biso   1.000  H
  C506     1.0000 0.47608  0.18662  0.05471  Biso   1.000  C
  O68      1.0000 0.39821  0.02502  0.04750  Biso   1.000  O
  C507     1.0000 0.37930  0.97762  0.08730  Biso   1.000  C
  H724     1.0000 0.50478  0.07002  0.14967  Biso   1.000  H
  C508     1.0000 0.43345  0.99043  0.16039  Biso   1.000  C
  C509     1.0000 0.36243  0.93568  0.12890  Biso   1.000  C
  H725     1.0000 0.15985  0.47022  0.22921  Biso   1.000  H
  H726     1.0000 0.08715  0.49695  0.24130  Biso   1.000  H
  C510     1.0000 0.11605  0.37899  0.25071  Biso   1.000  C
  C511     1.0000 0.16033  0.42399  0.24471  Biso   1.000  C
  H727     1.0000 0.17780  0.47145  0.23626  Biso   1.000  H
  H728     1.0000 0.06981  0.35227  0.25136  Biso   1.000  H
  H729     1.0000 0.06714  0.35291  0.24153  Biso   1.000  H
  H730     1.0000 0.04875  0.44285  0.24797  Biso   1.000  H
  H731     1.0000 0.08200  0.22621  0.19710  Biso   1.000  H
  H732     1.0000 0.04247  0.18403  0.17523  Biso   1.000  H
  C512     1.0000 0.98261  0.17699  0.20731  Biso   1.000  C
  O69      1.0000 0.01821  0.20048  0.12413  Biso   1.000  O
  H733     1.0000 0.94817  0.24554  0.14681  Biso   1.000  H
  H734     1.0000 0.94520  0.28554  0.12093  Biso   1.000  H
  H735     1.0000 0.07654  0.40719  0.06795  Biso   1.000  H
  H736     1.0000 0.46864  0.22175  0.06845  Biso   1.000  H
  H737     1.0000 0.42976  0.17534  0.04716  Biso   1.000  H
  C513     1.0000 0.52462  0.22498  0.03710  Biso   1.000  C
  C514     1.0000 0.43912  0.96910  0.03399  Biso   1.000  C
  C515     1.0000 0.31924  0.93051  0.07858  Biso   1.000  C
  C516     1.0000 0.37973  0.93967  0.15230  Biso   1.000  C
  H738     1.0000 0.44541  0.99313  0.17681  Biso   1.000  H
  H739     1.0000 0.32622  0.90073  0.12381  Biso   1.000  H
  H740     1.0000 0.15209  0.34152  0.24540  Biso   1.000  H
  C517     1.0000 0.13706  0.41700  0.27559  Biso   1.000  C
  H741     1.0000 0.18994  0.37870  0.24054  Biso   1.000  H
  C518     1.0000 0.15906  0.43797  0.27251  Biso   1.000  C
  H742     1.0000 0.00594  0.13058  0.21448  Biso   1.000  H
  H743     1.0000 0.97134  0.21417  0.22018  Biso   1.000  H
  C519     1.0000 0.91374  0.15102  0.19471  Biso   1.000  C
  C520     1.0000 0.97582  0.13598  0.11600  Biso   1.000  C
  H744     1.0000 0.50116  0.27232  0.03057  Biso   1.000  H
  H745     1.0000 0.53234  0.18815  0.02379  Biso   1.000  H
  C521     1.0000 0.59620  0.24871  0.04761  Biso   1.000  C
  H746     1.0000 0.43130  0.91518  0.03992  Biso   1.000  H
  H747     1.0000 0.49003  0.98138  0.03547  Biso   1.000  H
  C522     1.0000 0.41557  0.97539  0.00880  Biso   1.000  C
  O70      1.0000 0.25642  0.96857  0.08634  Biso   1.000  O
  H748     1.0000 0.31962  0.92746  0.06104  Biso   1.000  H
  H749     1.0000 0.32188  0.87653  0.08506  Biso   1.000  H
  H750     1.0000 0.35521  0.90795  0.16336  Biso   1.000  H
  H751     1.0000 0.14050  0.37482  0.28752  Biso   1.000  H
  H752     1.0000 0.18217  0.44355  0.27435  Biso   1.000  H
  H753     1.0000 0.10047  0.45424  0.28028  Biso   1.000  H
  H754     1.0000 0.12886  0.48308  0.27611  Biso   1.000  H
  H755     1.0000 0.14094  0.39104  0.28033  Biso   1.000  H
  H756     1.0000 0.20721  0.44872  0.27836  Biso   1.000  H
  H757     1.0000 0.92542  0.12935  0.17896  Biso   1.000  H
  H758     1.0000 0.89237  0.10808  0.20408  Biso   1.000  H
  C523     1.0000 0.85969  0.21499  0.19140  Biso   1.000  C
  C524     1.0000 0.02762  0.07601  0.10700  Biso   1.000  C
  H759     1.0000 0.94325  0.15290  0.10311  Biso   1.000  H
  H760     1.0000 0.94786  0.11413  0.12915  Biso   1.000  H
  H761     1.0000 0.61602  0.20371  0.05666  Biso   1.000  H
  H762     1.0000 0.58929  0.29235  0.05897  Biso   1.000  H
  C525     1.0000 0.64960  0.27438  0.02900  Biso   1.000  C
  H763     1.0000 0.42336  0.03013  0.00341  Biso   1.000  H
  H764     1.0000 0.44610  0.94097  0.99908  Biso   1.000  H
  C526     1.0000 0.33747  0.95348  0.00360  Biso   1.000  C
  C527     1.0000 0.19343  0.92881  0.07940  Biso   1.000  C
  H765     1.0000 0.81778  0.19384  0.18334  Biso   1.000  H
  H766     1.0000 0.84658  0.23614  0.20694  Biso   1.000  H
  H767     1.0000 0.87969  0.25740  0.18176  Biso   1.000  H
  C528     1.0000 0.04002  0.07160  0.08311  Biso   1.000  C
  C529     1.0000 0.06770  0.02908  0.12299  Biso   1.000  C
  H768     1.0000 0.69409  0.28877  0.03689  Biso   1.000  H
  H769     1.0000 0.65778  0.23103  0.01793  Biso   1.000  H
  H770     1.0000 0.63100  0.31984  0.02025  Biso   1.000  H
  C530     1.0000 0.31983  0.95448  0.97730  Biso   1.000  C
  H771     1.0000 0.32804  0.90043  0.01005  Biso   1.000  H
  H772     1.0000 0.30651  0.99113  0.01193  Biso   1.000  H
  H773     1.0000 0.19337  0.87465  0.08577  Biso   1.000  H
  H774     1.0000 0.18922  0.92628  0.06190  Biso   1.000  H
  C531     1.0000 0.13361  0.97480  0.08943  Biso   1.000  C
  C532     1.0000 0.09462  0.02291  0.07429  Biso   1.000  C
  O71      1.0000 0.99813  0.11149  0.06678  Biso   1.000  O
  C533     1.0000 0.05614  0.03190  0.14781  Biso   1.000  C
  C534     1.0000 0.11903  0.97721  0.11408  Biso   1.000  C
  H775     1.0000 0.27020  0.94038  0.97488  Biso   1.000  H
  H776     1.0000 0.34969  0.91659  0.96904  Biso   1.000  H
  H777     1.0000 0.32816  0.00723  0.97092  Biso   1.000  H
  O72      1.0000 0.11150  0.02919  0.05061  Biso   1.000  O
  C535     1.0000 0.02432  0.18562  0.05920  Biso   1.000  C
  H778     1.0000 0.02177  0.06667  0.15393  Biso   1.000  H
  C536     1.0000 0.09466  0.98408  0.16300  Biso   1.000  C
  C537     1.0000 0.15813  0.92822  0.13061  Biso   1.000  C
  C538     1.0000 0.06721  0.98332  0.03481  Biso   1.000  C
  H779     1.0000 0.06941  0.17769  0.05089  Biso   1.000  H
  H780     1.0000 0.03392  0.21893  0.07331  Biso   1.000  H
  C539     1.0000 0.97333  0.22662  0.04299  Biso   1.000  C
  H781     1.0000 0.08660  0.98620  0.17963  Biso   1.000  H
  C540     1.0000 0.14514  0.93280  0.15409  Biso   1.000  C
  H782     1.0000 0.19289  0.89286  0.12491  Biso   1.000  H
  H783     1.0000 0.01911  0.00570  0.03394  Biso   1.000  H
  H784     1.0000 0.06412  0.92834  0.04045  Biso   1.000  H
  C541     1.0000 0.10188  0.98649  0.01051  Biso   1.000  C
  H785     1.0000 0.99057  0.28096  0.04083  Biso   1.000  H
  H786     1.0000 0.97526  0.20036  0.02739  Biso   1.000  H
  C542     1.0000 0.90019  0.23150  0.04959  Biso   1.000  C
  H787     1.0000 0.17104  0.90026  0.16480  Biso   1.000  H
  H788     1.0000 0.07968  0.94707  0.99989  Biso   1.000  H
  H789     1.0000 0.15238  0.97274  0.01223  Biso   1.000  H
  C543     1.0000 0.09546  0.06767  0.99920  Biso   1.000  C
  H790     1.0000 0.87898  0.27432  0.04001  Biso   1.000  H
  H791     1.0000 0.89936  0.24888  0.06633  Biso   1.000  H
  C544     1.0000 0.85141  0.16242  0.04750  Biso   1.000  C
  H792     1.0000 0.89806  0.27350  0.06168  Biso   1.000  H
  H793     1.0000 0.89016  0.18180  0.05803  Biso   1.000  H
  C545     1.0000 0.83952  0.24501  0.03390  Biso   1.000  C
  H794     1.0000 0.10807  0.10791  0.01117  Biso   1.000  H
  H795     1.0000 0.04562  0.07654  0.99446  Biso   1.000  H
  C546     1.0000 0.14125  0.07877  0.97760  Biso   1.000  C
  H796     1.0000 0.80436  0.17769  0.05283  Biso   1.000  H
  H797     1.0000 0.84867  0.14503  0.03097  Biso   1.000  H
  H798     1.0000 0.86927  0.11942  0.05749  Biso   1.000  H
  H799     1.0000 0.79627  0.24512  0.04320  Biso   1.000  H
  H800     1.0000 0.84471  0.29517  0.02576  Biso   1.000  H
  H801     1.0000 0.83671  0.20242  0.02206  Biso   1.000  H
  H802     1.0000 0.13445  0.13187  0.97123  Biso   1.000  H
  H803     1.0000 0.19087  0.07149  0.98213  Biso   1.000  H
  H804     1.0000 0.12805  0.04012  0.96542  Biso   1.000  H
  C547     1.0000 0.63706  0.91700  0.27559  Biso   1.000  C
  C548     1.0000 0.61605  0.87899  0.25071  Biso   1.000  C
  H805     1.0000 0.64045  0.87482  0.28752  Biso   1.000  H
  H806     1.0000 0.68217  0.94355  0.27435  Biso   1.000  H
  H807     1.0000 0.60047  0.95424  0.28028  Biso   1.000  H
  H808     1.0000 0.62886  0.98302  0.27611  Biso   1.000  H
  H809     1.0000 0.64089  0.89104  0.28033  Biso   1.000  H
  C549     1.0000 0.61203  0.95295  0.23370  Biso   1.000  C
  C550     1.0000 0.57976  0.90795  0.23850  Biso   1.000  C
  C551     1.0000 0.66033  0.92399  0.24471  Biso   1.000  C
  H810     1.0000 0.56976  0.85227  0.25136  Biso   1.000  H
  H811     1.0000 0.56714  0.85291  0.24153  Biso   1.000  H
  H812     1.0000 0.65209  0.84152  0.24540  Biso   1.000  H
  C552     1.0000 0.56905  0.92099  0.21130  Biso   1.000  C
  C553     1.0000 0.57405  0.92898  0.21120  Biso   1.000  C
  H813     1.0000 0.65980  0.97022  0.22921  Biso   1.000  H
  H814     1.0000 0.58715  0.99695  0.24130  Biso   1.000  H
  H815     1.0000 0.67780  0.97145  0.23626  Biso   1.000  H
  H816     1.0000 0.54870  0.94285  0.24797  Biso   1.000  H
  H817     1.0000 0.68994  0.87864  0.24054  Biso   1.000  H
  C554     1.0000 0.65906  0.93797  0.27251  Biso   1.000  C
  O73      1.0000 0.61874  0.88405  0.19719  Biso   1.000  O
  H818     1.0000 0.53241  0.88358  0.21622  Biso   1.000  H
  H819     1.0000 0.54655  0.96511  0.20260  Biso   1.000  H
  H820     1.0000 0.52502  0.92058  0.20566  Biso   1.000  H
  H821     1.0000 0.58560  0.98508  0.20894  Biso   1.000  H
  H822     1.0000 0.70716  0.94872  0.27836  Biso   1.000  H
  C555     1.0000 0.59973  0.88170  0.17340  Biso   1.000  C
  C556     1.0000 0.54673  0.83200  0.16501  Biso   1.000  C
  C557     1.0000 0.63691  0.92916  0.15761  Biso   1.000  C
  O74      1.0000 0.50892  0.78906  0.18203  Biso   1.000  O
  C558     1.0000 0.52990  0.82548  0.14170  Biso   1.000  C
  C559     1.0000 0.61961  0.92657  0.13320  Biso   1.000  C
  C560     1.0000 0.69782  0.97715  0.16620  Biso   1.000  C
  C561     1.0000 0.53562  0.71828  0.18920  Biso   1.000  C
  C562     1.0000 0.47702  0.76380  0.13339  Biso   1.000  C
  C563     1.0000 0.56551  0.87218  0.12461  Biso   1.000  C
  C564     1.0000 0.65541  0.97169  0.11580  Biso   1.000  C
  O75      1.0000 0.76013  0.93756  0.15917  Biso   1.000  O
  H823     1.0000 0.69675  0.98226  0.18374  Biso   1.000  H
  H824     1.0000 0.69589  0.03049  0.15919  Biso   1.000  H
  C565     1.0000 0.48267  0.67699  0.20731  Biso   1.000  C
  H825     1.0000 0.58200  0.72621  0.19710  Biso   1.000  H
  H826     1.0000 0.54247  0.68403  0.17523  Biso   1.000  H
  O76      1.0000 0.51821  0.70048  0.12413  Biso   1.000  O
  H827     1.0000 0.44817  0.74554  0.14681  Biso   1.000  H
  H828     1.0000 0.44525  0.78554  0.12093  Biso   1.000  H
  C566     1.0000 0.55122  0.86877  0.10040  Biso   1.000  C
  C567     1.0000 0.63873  0.96846  0.09211  Biso   1.000  C
  H829     1.0000 0.69251  0.00552  0.12093  Biso   1.000  H
  C568     1.0000 0.82281  0.97668  0.16611  Biso   1.000  C
  C569     1.0000 0.41374  0.65096  0.19471  Biso   1.000  C
  H830     1.0000 0.50594  0.63058  0.21448  Biso   1.000  H
  H831     1.0000 0.47134  0.71417  0.22018  Biso   1.000  H
  C570     1.0000 0.47582  0.63598  0.11600  Biso   1.000  C
  C571     1.0000 0.58660  0.91306  0.08440  Biso   1.000  C
  H832     1.0000 0.51531  0.83423  0.09481  Biso   1.000  H
  H833     1.0000 0.66109  0.00211  0.08105  Biso   1.000  H
  H834     1.0000 0.82491  0.98308  0.18358  Biso   1.000  H
  C572     1.0000 0.88271  0.92675  0.15791  Biso   1.000  C
  H835     1.0000 0.82493  0.02943  0.15869  Biso   1.000  H
  H836     1.0000 0.42542  0.62929  0.17896  Biso   1.000  H
  H837     1.0000 0.39237  0.60808  0.20408  Biso   1.000  H
  C573     1.0000 0.35975  0.71499  0.19140  Biso   1.000  C
  C574     1.0000 0.52762  0.57601  0.10700  Biso   1.000  C
  H838     1.0000 0.44325  0.65290  0.10311  Biso   1.000  H
  H839     1.0000 0.44786  0.61413  0.12915  Biso   1.000  H
  H840     1.0000 0.57649  0.90719  0.06795  Biso   1.000  H
  C575     1.0000 0.91882  0.87876  0.17349  Biso   1.000  C
  C576     1.0000 0.90002  0.92317  0.13320  Biso   1.000  C
  H841     1.0000 0.31783  0.69384  0.18334  Biso   1.000  H
  H842     1.0000 0.34658  0.73614  0.20694  Biso   1.000  H
  H843     1.0000 0.37969  0.75740  0.18176  Biso   1.000  H
  C577     1.0000 0.54002  0.57160  0.08311  Biso   1.000  C
  C578     1.0000 0.56770  0.52908  0.12299  Biso   1.000  C
  O77      1.0000 0.89871  0.87758  0.19691  Biso   1.000  O
  C579     1.0000 0.97283  0.82865  0.16590  Biso   1.000  C
  C580     1.0000 0.95419  0.87130  0.12541  Biso   1.000  C
  C581     1.0000 0.86431  0.97057  0.11580  Biso   1.000  C
  O78      1.0000 0.49808  0.61149  0.06678  Biso   1.000  O
  C582     1.0000 0.59462  0.52291  0.07429  Biso   1.000  C
  C583     1.0000 0.55614  0.53190  0.14781  Biso   1.000  C
  C584     1.0000 0.61903  0.47721  0.11408  Biso   1.000  C
  C585     1.0000 0.94435  0.91958  0.21350  Biso   1.000  C
  C586     1.0000 0.98992  0.82266  0.14209  Biso   1.000  C
  O79      1.0000 0.00844  0.78225  0.18331  Biso   1.000  O
  C587     1.0000 0.96828  0.86689  0.10059  Biso   1.000  C
  C588     1.0000 0.88072  0.96740  0.09220  Biso   1.000  C
  H844     1.0000 0.82831  0.00535  0.12083  Biso   1.000  H
  C589     1.0000 0.52432  0.68556  0.05920  Biso   1.000  C
  O80      1.0000 0.61150  0.52919  0.05061  Biso   1.000  O
  C590     1.0000 0.63361  0.47480  0.08943  Biso   1.000  C
  H845     1.0000 0.52177  0.56667  0.15393  Biso   1.000  H
  C591     1.0000 0.59461  0.48408  0.16300  Biso   1.000  C
  C592     1.0000 0.65813  0.42816  0.13061  Biso   1.000  C
  H846     1.0000 0.95526  0.97251  0.20729  Biso   1.000  H
  H847     1.0000 0.98914  0.89062  0.21592  Biso   1.000  H
  C593     1.0000 0.90526  0.92587  0.23670  Biso   1.000  C
  C594     1.0000 0.04117  0.76257  0.13380  Biso   1.000  C
  C595     1.0000 0.98143  0.71199  0.19020  Biso   1.000  C
  C596     1.0000 0.96202  0.71499  0.18981  Biso   1.000  C
  C597     1.0000 0.93401  0.91318  0.08479  Biso   1.000  C
  H848     1.0000 0.00257  0.83059  0.09514  Biso   1.000  H
  H849     1.0000 0.85723  0.00029  0.08098  Biso   1.000  H
  H850     1.0000 0.56935  0.67769  0.05089  Biso   1.000  H
  H851     1.0000 0.53387  0.71887  0.07331  Biso   1.000  H
  C598     1.0000 0.47327  0.72656  0.04299  Biso   1.000  C
  C599     1.0000 0.56721  0.48326  0.03481  Biso   1.000  C
  C600     1.0000 0.69343  0.42881  0.07940  Biso   1.000  C
  H852     1.0000 0.58660  0.48614  0.17963  Biso   1.000  H
  C601     1.0000 0.64514  0.43280  0.15409  Biso   1.000  C
  H853     1.0000 0.69289  0.39286  0.12491  Biso   1.000  H
  H854     1.0000 0.93391  0.95829  0.24776  Biso   1.000  H
  H855     1.0000 0.86065  0.95459  0.23360  Biso   1.000  H
  C602     1.0000 0.88836  0.85297  0.24851  Biso   1.000  C
  H856     1.0000 0.94103  0.93750  0.24915  Biso   1.000  H
  H857     1.0000 0.87485  0.97304  0.23537  Biso   1.000  H
  C603     1.0000 0.86106  0.86296  0.24600  Biso   1.000  C
  O81      1.0000 0.99850  0.70136  0.12271  Biso   1.000  O
  H858     1.0000 0.07405  0.78577  0.12223  Biso   1.000  H
  H859     1.0000 0.06887  0.74113  0.14735  Biso   1.000  H
  H860     1.0000 0.97057  0.67875  0.17621  Biso   1.000  H
  H861     1.0000 0.93764  0.71987  0.19925  Biso   1.000  H
  H862     1.0000 0.94678  0.68521  0.17546  Biso   1.000  H
  C604     1.0000 0.03959  0.67276  0.20621  Biso   1.000  C
  C605     1.0000 0.00907  0.66500  0.20599  Biso   1.000  C
  H863     1.0000 0.91947  0.73344  0.19817  Biso   1.000  H
  H864     1.0000 0.94534  0.90972  0.06843  Biso   1.000  H
  H865     1.0000 0.49063  0.78096  0.04083  Biso   1.000  H
  H866     1.0000 0.47521  0.70036  0.02739  Biso   1.000  H
  C606     1.0000 0.40019  0.73150  0.04959  Biso   1.000  C
  H867     1.0000 0.51911  0.50564  0.03394  Biso   1.000  H
  H868     1.0000 0.56412  0.42834  0.04045  Biso   1.000  H
  C607     1.0000 0.60188  0.48649  0.01051  Biso   1.000  C
  O82      1.0000 0.75642  0.46857  0.08634  Biso   1.000  O
  H869     1.0000 0.69337  0.37459  0.08577  Biso   1.000  H
  H870     1.0000 0.68922  0.42628  0.06190  Biso   1.000  H
  H871     1.0000 0.67099  0.40026  0.16480  Biso   1.000  H
  H872     1.0000 0.93246  0.82401  0.25211  Biso   1.000  H
  H873     1.0000 0.85909  0.82008  0.23779  Biso   1.000  H
  C608     1.0000 0.84704  0.86795  0.27251  Biso   1.000  C
  H874     1.0000 0.89153  0.81926  0.25126  Biso   1.000  H
  H875     1.0000 0.82954  0.84387  0.23317  Biso   1.000  H
  C609     1.0000 0.81506  0.89297  0.26761  Biso   1.000  C
  C610     1.0000 0.04057  0.64027  0.11160  Biso   1.000  C
  H876     1.0000 0.04567  0.70436  0.22082  Biso   1.000  H
  H877     1.0000 0.02318  0.61995  0.21089  Biso   1.000  H
  C611     1.0000 0.11166  0.66500  0.19421  Biso   1.000  C
  H878     1.0000 0.05545  0.65995  0.19861  Biso   1.000  H
  C612     1.0000 0.02009  0.69196  0.23161  Biso   1.000  C
  H879     1.0000 0.98812  0.61120  0.20658  Biso   1.000  H
  H880     1.0000 0.37898  0.77432  0.04001  Biso   1.000  H
  H881     1.0000 0.39936  0.74888  0.06633  Biso   1.000  H
  C613     1.0000 0.35141  0.66236  0.04750  Biso   1.000  C
  H882     1.0000 0.39806  0.77350  0.06168  Biso   1.000  H
  H883     1.0000 0.39016  0.68180  0.05803  Biso   1.000  H
  C614     1.0000 0.33952  0.74501  0.03390  Biso   1.000  C
  H884     1.0000 0.65233  0.47274  0.01223  Biso   1.000  H
  H885     1.0000 0.57968  0.44707  0.99989  Biso   1.000  H
  C615     1.0000 0.59546  0.56767  0.99920  Biso   1.000  C
  C616     1.0000 0.81918  0.43051  0.07858  Biso   1.000  C
  H886     1.0000 0.83655  0.81726  0.28003  Biso   1.000  H
  H887     1.0000 0.87626  0.89955  0.28333  Biso   1.000  H
  H888     1.0000 0.80289  0.89556  0.26901  Biso   1.000  H
  H889     1.0000 0.78636  0.84933  0.27338  Biso   1.000  H
  H890     1.0000 0.84657  0.91136  0.28040  Biso   1.000  H
  H891     1.0000 0.78464  0.93591  0.26232  Biso   1.000  H
  C617     1.0000 0.98909  0.58230  0.10301  Biso   1.000  C
  H892     1.0000 0.07367  0.61637  0.12319  Biso   1.000  H
  H893     1.0000 0.06778  0.66207  0.09821  Biso   1.000  H
  H894     1.0000 0.12412  0.71617  0.18725  Biso   1.000  H
  H895     1.0000 0.10668  0.62682  0.18097  Biso   1.000  H
  C618     1.0000 0.17340  0.63798  0.21031  Biso   1.000  C
  H896     1.0000 0.97416  0.69149  0.23974  Biso   1.000  H
  H897     1.0000 0.03615  0.74783  0.23125  Biso   1.000  H
  C619     1.0000 0.07410  0.64497  0.24680  Biso   1.000  C
  H898     1.0000 0.30436  0.67763  0.05283  Biso   1.000  H
  H899     1.0000 0.34867  0.64503  0.03097  Biso   1.000  H
  H900     1.0000 0.36927  0.61936  0.05749  Biso   1.000  H
  H901     1.0000 0.29632  0.74507  0.04320  Biso   1.000  H
  H902     1.0000 0.34466  0.79517  0.02576  Biso   1.000  H
  H903     1.0000 0.33671  0.70236  0.02206  Biso   1.000  H
  H904     1.0000 0.60807  0.60785  0.01117  Biso   1.000  H
  H905     1.0000 0.54562  0.57654  0.99446  Biso   1.000  H
  C620     1.0000 0.64125  0.57877  0.97760  Biso   1.000  C
  C621     1.0000 0.87930  0.47756  0.08730  Biso   1.000  C
  H906     1.0000 0.81962  0.42746  0.06104  Biso   1.000  H
  H907     1.0000 0.82188  0.37653  0.08506  Biso   1.000  H
  C622     1.0000 0.97057  0.57501  0.07950  Biso   1.000  C
  C623     1.0000 0.95211  0.53336  0.11980  Biso   1.000  C
  H908     1.0000 0.21644  0.63452  0.20097  Biso   1.000  H
  H909     1.0000 0.18015  0.67552  0.22325  Biso   1.000  H
  H910     1.0000 0.16261  0.58594  0.21695  Biso   1.000  H
  H911     1.0000 0.07724  0.66712  0.26280  Biso   1.000  H
  H912     1.0000 0.05807  0.58981  0.24787  Biso   1.000  H
  H913     1.0000 0.12022  0.64632  0.23937  Biso   1.000  H
  H914     1.0000 0.63445  0.63187  0.97123  Biso   1.000  H
  H915     1.0000 0.69082  0.57149  0.98213  Biso   1.000  H
  H916     1.0000 0.62805  0.54006  0.96542  Biso   1.000  H
  C624     1.0000 0.91579  0.52338  0.07130  Biso   1.000  C
  C625     1.0000 0.89723  0.48250  0.11163  Biso   1.000  C
  O83      1.0000 0.00875  0.61578  0.06227  Biso   1.000  O
  C626     1.0000 0.96840  0.53589  0.14420  Biso   1.000  C
  O84      1.0000 0.89821  0.52496  0.04750  Biso   1.000  O
  C627     1.0000 0.86243  0.43568  0.12890  Biso   1.000  C
  C628     1.0000 0.97608  0.68656  0.05471  Biso   1.000  C
  C629     1.0000 0.93340  0.49037  0.16039  Biso   1.000  C
  H917     1.0000 0.00483  0.57002  0.14967  Biso   1.000  H
  C630     1.0000 0.93907  0.46910  0.03399  Biso   1.000  C
  H918     1.0000 0.82622  0.40073  0.12381  Biso   1.000  H
  C631     1.0000 0.87973  0.43967  0.15230  Biso   1.000  C
  H919     1.0000 0.96864  0.72175  0.06845  Biso   1.000  H
  H920     1.0000 0.92976  0.67534  0.04716  Biso   1.000  H
  C632     1.0000 0.02462  0.72498  0.03710  Biso   1.000  C
  H921     1.0000 0.94536  0.49307  0.17681  Biso   1.000  H
  H922     1.0000 0.93125  0.41518  0.03992  Biso   1.000  H
  H923     1.0000 0.98998  0.48132  0.03547  Biso   1.000  H
  C633     1.0000 0.91557  0.47539  0.00880  Biso   1.000  C
  H924     1.0000 0.85521  0.40789  0.16336  Biso   1.000  H
  H925     1.0000 0.00121  0.77232  0.03057  Biso   1.000  H
  H926     1.0000 0.03229  0.68815  0.02379  Biso   1.000  H
  C634     1.0000 0.09625  0.74865  0.04761  Biso   1.000  C
  H927     1.0000 0.92336  0.53008  0.00341  Biso   1.000  H
  C635     1.0000 0.83747  0.45348  0.00360  Biso   1.000  C
  H928     1.0000 0.94610  0.44097  0.99908  Biso   1.000  H
  H929     1.0000 0.11607  0.70365  0.05666  Biso   1.000  H
  H930     1.0000 0.08929  0.79235  0.05897  Biso   1.000  H
  C636     1.0000 0.14965  0.77438  0.02900  Biso   1.000  C
  H931     1.0000 0.82804  0.40043  0.01005  Biso   1.000  H
  H932     1.0000 0.80651  0.49107  0.01193  Biso   1.000  H
  C637     1.0000 0.81983  0.45448  0.97730  Biso   1.000  C
  H933     1.0000 0.19414  0.78871  0.03689  Biso   1.000  H
  H934     1.0000 0.15784  0.73103  0.01793  Biso   1.000  H
  H935     1.0000 0.13106  0.81978  0.02025  Biso   1.000  H
  H936     1.0000 0.77020  0.44038  0.97488  Biso   1.000  H
  H937     1.0000 0.82816  0.50723  0.97092  Biso   1.000  H
  H938     1.0000 0.84969  0.41659  0.96904  Biso   1.000  H
  C638     1.0000 0.36319  0.08300  0.72440  Biso   1.000  C
  C639     1.0000 0.38419  0.12101  0.74930  Biso   1.000  C
  H939     1.0000 0.35974  0.12512  0.71247  Biso   1.000  H
  H940     1.0000 0.31808  0.05645  0.72566  Biso   1.000  H
  H941     1.0000 0.39978  0.04576  0.71973  Biso   1.000  H
  H942     1.0000 0.37139  0.01692  0.72390  Biso   1.000  H
  H943     1.0000 0.35930  0.10891  0.71966  Biso   1.000  H
  C640     1.0000 0.38817  0.04699  0.76631  Biso   1.000  C
  H944     1.0000 0.34816  0.15848  0.75461  Biso   1.000  H
  H945     1.0000 0.43043  0.14767  0.74863  Biso   1.000  H
  C641     1.0000 0.42048  0.09199  0.76150  Biso   1.000  C
  H946     1.0000 0.43311  0.14703  0.75848  Biso   1.000  H
  C642     1.0000 0.33991  0.07601  0.75530  Biso   1.000  C
  C643     1.0000 0.43120  0.07901  0.78871  Biso   1.000  C
  H947     1.0000 0.34040  0.02972  0.77080  Biso   1.000  H
  H948     1.0000 0.41309  0.00300  0.75871  Biso   1.000  H
  C644     1.0000 0.42620  0.07102  0.78880  Biso   1.000  C
  H949     1.0000 0.32245  0.02855  0.76375  Biso   1.000  H
  H950     1.0000 0.45150  0.05710  0.75203  Biso   1.000  H
  H951     1.0000 0.31031  0.12130  0.75947  Biso   1.000  H
  C645     1.0000 0.34118  0.06197  0.72750  Biso   1.000  C
  O85      1.0000 0.38151  0.11590  0.80282  Biso   1.000  O
  H952     1.0000 0.46783  0.11637  0.78379  Biso   1.000  H
  H953     1.0000 0.45369  0.03489  0.79739  Biso   1.000  H
  H954     1.0000 0.47523  0.07942  0.79435  Biso   1.000  H
  H955     1.0000 0.41464  0.01486  0.79107  Biso   1.000  H
  H956     1.0000 0.29304  0.05128  0.72165  Biso   1.000  H
  C646     1.0000 0.40052  0.11830  0.82660  Biso   1.000  C
  C647     1.0000 0.45351  0.16800  0.83500  Biso   1.000  C
  C648     1.0000 0.36328  0.07078  0.84240  Biso   1.000  C
  O86      1.0000 0.49128  0.21088  0.81798  Biso   1.000  O
  C649     1.0000 0.47029  0.17452  0.85831  Biso   1.000  C
  C650     1.0000 0.38063  0.07343  0.86681  Biso   1.000  C
  C651     1.0000 0.30243  0.02279  0.83381  Biso   1.000  C
  C652     1.0000 0.46458  0.28172  0.81081  Biso   1.000  C
  C653     1.0000 0.52322  0.23620  0.86660  Biso   1.000  C
  C654     1.0000 0.43474  0.12782  0.87540  Biso   1.000  C
  C655     1.0000 0.34483  0.02831  0.88420  Biso   1.000  C
  O87      1.0000 0.24012  0.06238  0.84084  Biso   1.000  O
  H957     1.0000 0.30344  0.01774  0.81627  Biso   1.000  H
  H958     1.0000 0.30435  0.96951  0.84082  Biso   1.000  H
  H959     1.0000 0.41824  0.27373  0.80289  Biso   1.000  H
  H960     1.0000 0.45778  0.31597  0.82476  Biso   1.000  H
  C656     1.0000 0.51758  0.32301  0.79270  Biso   1.000  C
  O88      1.0000 0.48203  0.29952  0.87588  Biso   1.000  O
  H961     1.0000 0.55207  0.25446  0.85318  Biso   1.000  H
  H962     1.0000 0.55499  0.21446  0.87906  Biso   1.000  H
  C657     1.0000 0.44902  0.13117  0.89959  Biso   1.000  C
  C658     1.0000 0.36152  0.03148  0.90790  Biso   1.000  C
  H963     1.0000 0.30773  0.99448  0.87906  Biso   1.000  H
  C659     1.0000 0.17743  0.02332  0.83390  Biso   1.000  C
  H964     1.0000 0.49430  0.36936  0.78551  Biso   1.000  H
  H965     1.0000 0.52890  0.28583  0.77981  Biso   1.000  H
  C660     1.0000 0.58650  0.34898  0.80530  Biso   1.000  C
  C661     1.0000 0.52442  0.36402  0.88401  Biso   1.000  C
  C662     1.0000 0.41364  0.08688  0.91561  Biso   1.000  C
  H966     1.0000 0.48493  0.16577  0.90520  Biso   1.000  H
  H967     1.0000 0.33911  0.99789  0.91896  Biso   1.000  H
  H968     1.0000 0.17534  0.01692  0.81643  Biso   1.000  H
  C663     1.0000 0.11754  0.07319  0.84210  Biso   1.000  C
  H969     1.0000 0.17526  0.97063  0.84130  Biso   1.000  H
  H970     1.0000 0.57483  0.37065  0.82105  Biso   1.000  H
  H971     1.0000 0.60788  0.39192  0.79593  Biso   1.000  H
  C664     1.0000 0.64050  0.28501  0.80861  Biso   1.000  C
  C665     1.0000 0.47262  0.42399  0.89301  Biso   1.000  C
  H972     1.0000 0.55700  0.34710  0.89690  Biso   1.000  H
  H973     1.0000 0.55239  0.38587  0.87086  Biso   1.000  H
  H974     1.0000 0.42370  0.09281  0.93206  Biso   1.000  H
  C666     1.0000 0.08143  0.12118  0.82650  Biso   1.000  C
  C667     1.0000 0.10023  0.07677  0.86681  Biso   1.000  C
  H975     1.0000 0.68241  0.30616  0.81665  Biso   1.000  H
  H976     1.0000 0.65366  0.26386  0.79307  Biso   1.000  H
  H977     1.0000 0.62056  0.24254  0.81824  Biso   1.000  H
  C668     1.0000 0.46023  0.42840  0.91690  Biso   1.000  C
  C669     1.0000 0.43254  0.47086  0.87700  Biso   1.000  C
  O89      1.0000 0.10148  0.12242  0.80308  Biso   1.000  O
  C670     1.0000 0.02741  0.17129  0.83410  Biso   1.000  C
  C671     1.0000 0.04601  0.12870  0.87460  Biso   1.000  C
  C672     1.0000 0.13594  0.02937  0.88420  Biso   1.000  C
  O90      1.0000 0.50211  0.38851  0.93323  Biso   1.000  O
  C673     1.0000 0.40563  0.47709  0.92571  Biso   1.000  C
  C674     1.0000 0.44411  0.46810  0.85220  Biso   1.000  C
  C675     1.0000 0.38121  0.52279  0.88591  Biso   1.000  C
  C676     1.0000 0.05590  0.08042  0.78651  Biso   1.000  C
  C677     1.0000 0.01032  0.17728  0.85790  Biso   1.000  C
  O91      1.0000 0.99180  0.21769  0.81670  Biso   1.000  O
  C678     1.0000 0.03191  0.13311  0.89940  Biso   1.000  C
  C679     1.0000 0.11953  0.03260  0.90779  Biso   1.000  C
  H978     1.0000 0.17193  0.99460  0.87918  Biso   1.000  H
  C680     1.0000 0.47592  0.31438  0.94081  Biso   1.000  C
  O92      1.0000 0.38875  0.47081  0.94940  Biso   1.000  O
  C681     1.0000 0.36664  0.52520  0.91058  Biso   1.000  C
  H979     1.0000 0.47848  0.43327  0.84608  Biso   1.000  H
  C682     1.0000 0.40559  0.51586  0.83701  Biso   1.000  C
  C683     1.0000 0.34211  0.57178  0.86940  Biso   1.000  C
  H980     1.0000 0.04493  0.02743  0.79270  Biso   1.000  H
  H981     1.0000 0.01111  0.10938  0.78409  Biso   1.000  H
  C684     1.0000 0.09499  0.07407  0.76331  Biso   1.000  C
  C685     1.0000 0.95913  0.23737  0.86621  Biso   1.000  C
  C686     1.0000 0.01881  0.28801  0.80979  Biso   1.000  C
  C687     1.0000 0.03822  0.28501  0.81020  Biso   1.000  C
  C688     1.0000 0.06624  0.08682  0.91520  Biso   1.000  C
  H982     1.0000 0.99767  0.16935  0.90485  Biso   1.000  H
  H983     1.0000 0.14302  0.99965  0.91901  Biso   1.000  H
  H984     1.0000 0.43084  0.32231  0.94910  Biso   1.000  H
  H985     1.0000 0.46633  0.28107  0.92670  Biso   1.000  H
  C689     1.0000 0.52692  0.27338  0.95700  Biso   1.000  C
  C690     1.0000 0.43304  0.51668  0.96520  Biso   1.000  C
  C691     1.0000 0.30682  0.57119  0.92061  Biso   1.000  C
  H986     1.0000 0.41365  0.51380  0.82036  Biso   1.000  H
  C692     1.0000 0.35510  0.56720  0.84590  Biso   1.000  C
  H987     1.0000 0.30736  0.60708  0.87510  Biso   1.000  H
  H988     1.0000 0.06633  0.04171  0.75223  Biso   1.000  H
  H989     1.0000 0.13959  0.04541  0.76641  Biso   1.000  H
  C693     1.0000 0.11189  0.14697  0.75150  Biso   1.000  C
  H990     1.0000 0.05916  0.06244  0.75086  Biso   1.000  H
  H991     1.0000 0.12539  0.02696  0.76462  Biso   1.000  H
  C694     1.0000 0.13918  0.13698  0.75400  Biso   1.000  C
  O93      1.0000 0.00175  0.29858  0.87730  Biso   1.000  O
  H992     1.0000 0.92625  0.21423  0.87776  Biso   1.000  H
  H993     1.0000 0.93132  0.25881  0.85266  Biso   1.000  H
  H994     1.0000 0.02962  0.32119  0.82380  Biso   1.000  H
  H995     1.0000 0.06260  0.28013  0.80076  Biso   1.000  H
  H996     1.0000 0.05342  0.31479  0.82455  Biso   1.000  H
  C695     1.0000 0.96071  0.32719  0.79380  Biso   1.000  C
  C696     1.0000 0.99123  0.33500  0.79400  Biso   1.000  C
  H997     1.0000 0.08077  0.26651  0.80184  Biso   1.000  H
  H998     1.0000 0.05490  0.09023  0.93156  Biso   1.000  H
  H999     1.0000 0.50962  0.21904  0.95918  Biso   1.000  H
  H1000    1.0000 0.52499  0.29958  0.97262  Biso   1.000  H
  C697     1.0000 0.60005  0.26850  0.95040  Biso   1.000  C
  H1001    1.0000 0.48113  0.49430  0.96607  Biso   1.000  H
  H1002    1.0000 0.43612  0.57160  0.95956  Biso   1.000  H
  C698     1.0000 0.39837  0.51351  0.98950  Biso   1.000  C
  O94      1.0000 0.24382  0.53137  0.91367  Biso   1.000  O
  H1003    1.0000 0.30687  0.62535  0.91424  Biso   1.000  H
  H1004    1.0000 0.31102  0.57366  0.93810  Biso   1.000  H
  H1005    1.0000 0.32921  0.59974  0.83520  Biso   1.000  H
  H1006    1.0000 0.06779  0.17593  0.74790  Biso   1.000  H
  H1007    1.0000 0.14116  0.17992  0.76222  Biso   1.000  H
  C699     1.0000 0.15321  0.13199  0.72750  Biso   1.000  C
  H1008    1.0000 0.10872  0.18074  0.74873  Biso   1.000  H
  H1009    1.0000 0.17070  0.15613  0.76684  Biso   1.000  H
  C700     1.0000 0.18519  0.10703  0.73240  Biso   1.000  C
  C701     1.0000 0.95973  0.35967  0.88841  Biso   1.000  C
  H1010    1.0000 0.95462  0.29564  0.77918  Biso   1.000  H
  H1011    1.0000 0.97701  0.38005  0.78912  Biso   1.000  H
  C702     1.0000 0.88859  0.33500  0.80580  Biso   1.000  C
  H1012    1.0000 0.94479  0.33999  0.80140  Biso   1.000  H
  C703     1.0000 0.98016  0.30798  0.76840  Biso   1.000  C
  H1013    1.0000 0.01213  0.38880  0.79343  Biso   1.000  H
  H1014    1.0000 0.62127  0.22568  0.95998  Biso   1.000  H
  H1015    1.0000 0.60089  0.25112  0.93366  Biso   1.000  H
  C704     1.0000 0.64884  0.33758  0.95251  Biso   1.000  C
  H1016    1.0000 0.60219  0.22645  0.93833  Biso   1.000  H
  H1017    1.0000 0.61009  0.31820  0.94198  Biso   1.000  H
  C705     1.0000 0.66073  0.25499  0.96611  Biso   1.000  C
  H1018    1.0000 0.34786  0.52726  0.98778  Biso   1.000  H
  H1019    1.0000 0.42057  0.55293  0.00012  Biso   1.000  H
  C706     1.0000 0.40479  0.43227  0.00081  Biso   1.000  C
  C707     1.0000 0.18101  0.56949  0.92141  Biso   1.000  C
  H1020    1.0000 0.16370  0.18274  0.71998  Biso   1.000  H
  H1021    1.0000 0.12399  0.10045  0.71668  Biso   1.000  H
  H1022    1.0000 0.19736  0.10438  0.73100  Biso   1.000  H
  H1023    1.0000 0.21383  0.15061  0.72662  Biso   1.000  H
  H1024    1.0000 0.15367  0.08864  0.71960  Biso   1.000  H
  H1025    1.0000 0.21560  0.06409  0.73769  Biso   1.000  H
  C708     1.0000 0.01115  0.41770  0.89700  Biso   1.000  C
  H1026    1.0000 0.92653  0.38358  0.87680  Biso   1.000  H
  H1027    1.0000 0.93251  0.33793  0.90178  Biso   1.000  H
  H1028    1.0000 0.87618  0.28378  0.81276  Biso   1.000  H
  H1029    1.0000 0.89357  0.37318  0.81904  Biso   1.000  H
  C709     1.0000 0.82685  0.36202  0.78970  Biso   1.000  C
  H1030    1.0000 0.02609  0.30851  0.76027  Biso   1.000  H
  H1031    1.0000 0.96410  0.25217  0.76876  Biso   1.000  H
  C710     1.0000 0.92620  0.35497  0.75321  Biso   1.000  C
  H1032    1.0000 0.69588  0.32231  0.94718  Biso   1.000  H
  H1033    1.0000 0.65158  0.35491  0.96903  Biso   1.000  H
  H1034    1.0000 0.63098  0.38058  0.94250  Biso   1.000  H
  H1035    1.0000 0.70392  0.25488  0.95680  Biso   1.000  H
  H1036    1.0000 0.65553  0.20477  0.97425  Biso   1.000  H
  H1037    1.0000 0.66354  0.29758  0.97794  Biso   1.000  H
  H1038    1.0000 0.39217  0.39209  0.98884  Biso   1.000  H
  H1039    1.0000 0.45463  0.42346  0.00553  Biso   1.000  H
  C711     1.0000 0.35899  0.42117  0.02241  Biso   1.000  C
  C712     1.0000 0.12094  0.52238  0.91269  Biso   1.000  C
  H1040    1.0000 0.18063  0.57249  0.93896  Biso   1.000  H
  H1041    1.0000 0.17837  0.62341  0.91495  Biso   1.000  H
  C713     1.0000 0.02962  0.42499  0.92050  Biso   1.000  C
  C714     1.0000 0.04814  0.46658  0.88021  Biso   1.000  C
  H1042    1.0000 0.78381  0.36543  0.79904  Biso   1.000  H
  H1043    1.0000 0.82009  0.32442  0.77676  Biso   1.000  H
  H1044    1.0000 0.83753  0.41406  0.78306  Biso   1.000  H
  H1045    1.0000 0.92295  0.33288  0.73721  Biso   1.000  H
  H1046    1.0000 0.94217  0.41013  0.75214  Biso   1.000  H
  H1047    1.0000 0.88003  0.35362  0.76064  Biso   1.000  H
  H1048    1.0000 0.36579  0.36813  0.02876  Biso   1.000  H
  H1049    1.0000 0.30938  0.42851  0.01787  Biso   1.000  H
  H1050    1.0000 0.37220  0.45988  0.03459  Biso   1.000  H
  C715     1.0000 0.08445  0.47656  0.92871  Biso   1.000  C
  C716     1.0000 0.10302  0.51750  0.88836  Biso   1.000  C
  O95      1.0000 0.99155  0.38416  0.93774  Biso   1.000  O
  C717     1.0000 0.03184  0.46411  0.85580  Biso   1.000  C
  O96      1.0000 0.10204  0.47498  0.95251  Biso   1.000  O
  C718     1.0000 0.13782  0.56426  0.87110  Biso   1.000  C
  C719     1.0000 0.02417  0.31338  0.94530  Biso   1.000  C
  C720     1.0000 0.06679  0.50957  0.83960  Biso   1.000  C
  H1051    1.0000 0.99546  0.42992  0.85032  Biso   1.000  H
  C721     1.0000 0.06113  0.53090  0.96600  Biso   1.000  C
  H1052    1.0000 0.17402  0.59927  0.87620  Biso   1.000  H
  C722     1.0000 0.12051  0.56027  0.84771  Biso   1.000  C
  H1053    1.0000 0.03161  0.27825  0.93155  Biso   1.000  H
  H1054    1.0000 0.07049  0.32466  0.95285  Biso   1.000  H
  C723     1.0000 0.97563  0.27496  0.96291  Biso   1.000  C
  H1055    1.0000 0.05484  0.50687  0.82320  Biso   1.000  H
  H1056    1.0000 0.06894  0.58482  0.96007  Biso   1.000  H
  H1057    1.0000 0.01021  0.51862  0.96453  Biso   1.000  H
  C724     1.0000 0.08467  0.52461  0.99120  Biso   1.000  C
  H1058    1.0000 0.14503  0.59205  0.83665  Biso   1.000  H
  H1059    1.0000 0.99908  0.22768  0.96944  Biso   1.000  H
  H1060    1.0000 0.96790  0.31185  0.97621  Biso   1.000  H
  C725     1.0000 0.90400  0.25129  0.95240  Biso   1.000  C
  H1061    1.0000 0.07688  0.46987  0.99658  Biso   1.000  H
  C726     1.0000 0.16278  0.54646  0.99641  Biso   1.000  C
  H1062    1.0000 0.05414  0.55903  0.00091  Biso   1.000  H
  H1063    1.0000 0.88423  0.29629  0.94335  Biso   1.000  H
  H1064    1.0000 0.91095  0.20759  0.94102  Biso   1.000  H
  C727     1.0000 0.85059  0.22562  0.97100  Biso   1.000  C
  H1065    1.0000 0.17220  0.59951  0.98996  Biso   1.000  H
  H1066    1.0000 0.19373  0.50887  0.98808  Biso   1.000  H
  C728     1.0000 0.18041  0.54547  0.02271  Biso   1.000  C
  H1067    1.0000 0.80616  0.21123  0.96311  Biso   1.000  H
  H1068    1.0000 0.84246  0.26897  0.98208  Biso   1.000  H
  H1069    1.0000 0.86919  0.18016  0.97976  Biso   1.000  H
  H1070    1.0000 0.23005  0.55956  0.02511  Biso   1.000  H
  H1071    1.0000 0.17209  0.49272  0.02907  Biso   1.000  H
  H1072    1.0000 0.15056  0.58341  0.03095  Biso   1.000  H
