data_image0
_cell_length_a       27.786
_cell_length_b       27.854
_cell_length_c       29.362
_cell_angle_alpha    111.47
_cell_angle_beta     101.32
_cell_angle_gamma    105.4

_symmetry_space_group_name_H-M    "P 1"
_symmetry_int_tables_number       1

loop_
  _symmetry_equiv_pos_as_xyz
  'x, y, z'

loop_
  _atom_site_label
  _atom_site_occupancy
  _atom_site_fract_x
  _atom_site_fract_y
  _atom_site_fract_z
  _atom_site_thermal_displace_type
  _atom_site_B_iso_or_equiv
  _atom_site_type_symbol
  C1       1.0000 0.93761  0.55068  0.67634  Biso   1.000  C
  C2       1.0000 0.93764  0.55068  0.67634  Biso   1.000  C
  C3       1.0000 0.99383  0.54497  0.74636  Biso   1.000  C
  C4       1.0000 0.99380  0.54497  0.74636  Biso   1.000  C
  H1       1.0000 0.01732  0.57623  0.69873  Biso   1.000  H
  H2       1.0000 0.01730  0.57627  0.69873  Biso   1.000  H
  H3       1.0000 0.01729  0.57623  0.69873  Biso   1.000  H
  H4       1.0000 0.01733  0.57627  0.69873  Biso   1.000  H
  B1       1.0000 0.93303  0.56687  0.63486  Biso   1.000  B
  B2       1.0000 0.93301  0.56685  0.63483  Biso   1.000  B
  B3       1.0000 0.93298  0.56685  0.63483  Biso   1.000  B
  C5       1.0000 0.89340  0.52628  0.68715  Biso   1.000  C
  C6       1.0000 0.98772  0.55997  0.70597  Biso   1.000  C
  C7       1.0000 0.98774  0.55995  0.70593  Biso   1.000  C
  C8       1.0000 0.89343  0.52624  0.68715  Biso   1.000  C
  C9       1.0000 0.98776  0.56000  0.70597  Biso   1.000  C
  C10      1.0000 0.94962  0.52068  0.75717  Biso   1.000  C
  C11      1.0000 0.94965  0.52066  0.75713  Biso   1.000  C
  B4       1.0000 0.05042  0.54867  0.77897  Biso   1.000  B
  B5       1.0000 0.05041  0.54865  0.77893  Biso   1.000  B
  B6       1.0000 0.05043  0.54871  0.77897  Biso   1.000  B
  O1       1.0000 0.88462  0.56427  0.60543  Biso   1.000  O
  O2       1.0000 0.88458  0.56424  0.60543  Biso   1.000  O
  O3       1.0000 0.97399  0.59215  0.61984  Biso   1.000  O
  O4       1.0000 0.97404  0.59218  0.61984  Biso   1.000  O
  H5       1.0000 0.85993  0.52006  0.66736  Biso   1.000  H
  H6       1.0000 0.85994  0.52009  0.66736  Biso   1.000  H
  C12      1.0000 0.89952  0.51128  0.72754  Biso   1.000  C
  H7       1.0000 0.85989  0.52006  0.66736  Biso   1.000  H
  C13      1.0000 0.89955  0.51128  0.72754  Biso   1.000  C
  H8       1.0000 0.95364  0.51069  0.78416  Biso   1.000  H
  H9       1.0000 0.95363  0.51065  0.78416  Biso   1.000  H
  H10      1.0000 0.95361  0.51069  0.78416  Biso   1.000  H
  O5       1.0000 0.05653  0.53578  0.81994  Biso   1.000  O
  O6       1.0000 0.09425  0.57260  0.76975  Biso   1.000  O
  O7       1.0000 0.09421  0.57260  0.76975  Biso   1.000  O
  C14      1.0000 0.89913  0.58057  0.57046  Biso   1.000  C
  C15      1.0000 0.89911  0.58055  0.57042  Biso   1.000  C
  C16      1.0000 0.89908  0.58055  0.57042  Biso   1.000  C
  C17      1.0000 0.89909  0.58057  0.57046  Biso   1.000  C
  C18      1.0000 0.95302  0.59925  0.57813  Biso   1.000  C
  C19      1.0000 0.95298  0.59925  0.57813  Biso   1.000  C
  B7       1.0000 0.84944  0.48539  0.73796  Biso   1.000  B
  B8       1.0000 0.84939  0.48535  0.73796  Biso   1.000  B
  C20      1.0000 0.11205  0.55158  0.83795  Biso   1.000  C
  C21      1.0000 0.13370  0.57159  0.80666  Biso   1.000  C
  C22      1.0000 0.13373  0.57156  0.80666  Biso   1.000  C
  C23      1.0000 0.13374  0.57159  0.80666  Biso   1.000  C
  C24      1.0000 0.13369  0.57156  0.80666  Biso   1.000  C
  C25      1.0000 0.86451  0.58293  0.53084  Biso   1.000  C
  C26      1.0000 0.86449  0.58297  0.53084  Biso   1.000  C
  C27      1.0000 0.97228  0.62015  0.54633  Biso   1.000  C
  O8       1.0000 0.84825  0.46727  0.77614  Biso   1.000  O
  O9       1.0000 0.79891  0.47786  0.71015  Biso   1.000  O
  O10      1.0000 0.84822  0.46727  0.77614  Biso   1.000  O
  C28      1.0000 0.14426  0.54670  0.87738  Biso   1.000  C
  C29      1.0000 0.14421  0.54665  0.87734  Biso   1.000  C
  C30      1.0000 0.14425  0.54668  0.87734  Biso   1.000  C
  C31      1.0000 0.18762  0.58668  0.81475  Biso   1.000  C
  C32      1.0000 0.88370  0.60394  0.49905  Biso   1.000  C
  C33      1.0000 0.88371  0.60398  0.49905  Biso   1.000  C
  H11      1.0000 0.82841  0.57046  0.52565  Biso   1.000  H
  H12      1.0000 0.82839  0.57044  0.52561  Biso   1.000  H
  C34      1.0000 0.93762  0.62257  0.50675  Biso   1.000  C
  C35      1.0000 0.93760  0.62255  0.50671  Biso   1.000  C
  C36      1.0000 0.93757  0.62255  0.50671  Biso   1.000  C
  H13      1.0000 0.00839  0.63262  0.55152  Biso   1.000  H
  C37      1.0000 0.76772  0.45334  0.73265  Biso   1.000  C
  C38      1.0000 0.76769  0.45338  0.73265  Biso   1.000  C
  C39      1.0000 0.79639  0.44666  0.77273  Biso   1.000  C
  H14      1.0000 0.12973  0.53329  0.89825  Biso   1.000  H
  C40      1.0000 0.19822  0.56179  0.88547  Biso   1.000  C
  H15      1.0000 0.12972  0.53325  0.89825  Biso   1.000  H
  C41      1.0000 0.19824  0.56177  0.88543  Biso   1.000  C
  C42      1.0000 0.19826  0.56179  0.88547  Biso   1.000  C
  C43      1.0000 0.19821  0.56177  0.88543  Biso   1.000  C
  C44      1.0000 0.21993  0.58167  0.85406  Biso   1.000  C
  C45      1.0000 0.21994  0.58171  0.85406  Biso   1.000  C
  H16      1.0000 0.20215  0.60000  0.79376  Biso   1.000  H
  H17      1.0000 0.20211  0.60000  0.79376  Biso   1.000  H
  C46      1.0000 0.85883  0.61278  0.45455  Biso   1.000  C
  C47      1.0000 0.85878  0.61274  0.45455  Biso   1.000  C
  C48      1.0000 0.85880  0.61272  0.45451  Biso   1.000  C
  C49      1.0000 0.96440  0.64577  0.47403  Biso   1.000  C
  C50      1.0000 0.96443  0.64577  0.47403  Biso   1.000  C
  C51      1.0000 0.71301  0.43665  0.71952  Biso   1.000  C
  C52      1.0000 0.71298  0.43665  0.71952  Biso   1.000  C
  C53      1.0000 0.77052  0.42328  0.79984  Biso   1.000  C
  C54      1.0000 0.77051  0.42324  0.79984  Biso   1.000  C
  C55      1.0000 0.77049  0.42328  0.79984  Biso   1.000  C
  C56      1.0000 0.23677  0.56021  0.92966  Biso   1.000  C
  C57      1.0000 0.23673  0.56021  0.92966  Biso   1.000  C
  C58      1.0000 0.27883  0.59876  0.86835  Biso   1.000  C
  C59      1.0000 0.27884  0.59880  0.86835  Biso   1.000  C
  C60      1.0000 0.88450  0.67246  0.46442  Biso   1.000  C
  C61      1.0000 0.87707  0.58264  0.41133  Biso   1.000  C
  H18      1.0000 0.82016  0.60014  0.44502  Biso   1.000  H
  C62      1.0000 0.93844  0.68926  0.47213  Biso   1.000  C
  C63      1.0000 0.93840  0.68926  0.47213  Biso   1.000  C
  C64      1.0000 0.93099  0.60156  0.41934  Biso   1.000  C
  C65      1.0000 0.93101  0.60154  0.41931  Biso   1.000  C
  H19      1.0000 0.00290  0.65776  0.48344  Biso   1.000  H
  C66      1.0000 0.68724  0.41318  0.74667  Biso   1.000  C
  H20      1.0000 0.69379  0.44104  0.69272  Biso   1.000  H
  C67      1.0000 0.68719  0.41316  0.74663  Biso   1.000  C
  H21      1.0000 0.69381  0.44106  0.69276  Biso   1.000  H
  C68      1.0000 0.68720  0.41318  0.74667  Biso   1.000  C
  C69      1.0000 0.68723  0.41316  0.74663  Biso   1.000  C
  H22      1.0000 0.69385  0.44109  0.69276  Biso   1.000  H
  C70      1.0000 0.71595  0.40659  0.78687  Biso   1.000  C
  C71      1.0000 0.71590  0.40653  0.78683  Biso   1.000  C
  C72      1.0000 0.71592  0.40659  0.78687  Biso   1.000  C
  H23      1.0000 0.78974  0.41880  0.82676  Biso   1.000  H
  C73      1.0000 0.71591  0.40657  0.78683  Biso   1.000  C
  H24      1.0000 0.78970  0.41877  0.82676  Biso   1.000  H
  C74      1.0000 0.71593  0.40653  0.78683  Biso   1.000  C
  H25      1.0000 0.22074  0.54547  0.95096  Biso   1.000  H
  C75      1.0000 0.26412  0.52706  0.89934  Biso   1.000  C
  H26      1.0000 0.22075  0.54551  0.95096  Biso   1.000  H
  C76      1.0000 0.27417  0.62012  0.95727  Biso   1.000  C
  H27      1.0000 0.22071  0.54547  0.95096  Biso   1.000  H
  C77      1.0000 0.27413  0.62012  0.95727  Biso   1.000  C
  C78      1.0000 0.28663  0.54637  0.86804  Biso   1.000  C
  H28      1.0000 0.29503  0.61367  0.84717  Biso   1.000  H
  C79      1.0000 0.29524  0.63796  0.92455  Biso   1.000  C
  H29      1.0000 0.29502  0.61365  0.84713  Biso   1.000  H
  H30      1.0000 0.29504  0.61371  0.84717  Biso   1.000  H
  C80      1.0000 0.29525  0.63800  0.92455  Biso   1.000  C
  C81      1.0000 0.85960  0.71045  0.46984  Biso   1.000  C
  C82      1.0000 0.84310  0.53562  0.36652  Biso   1.000  C
  C83      1.0000 0.84306  0.53562  0.36652  Biso   1.000  C
  C84      1.0000 0.84307  0.53566  0.36652  Biso   1.000  C
  C85      1.0000 0.84311  0.53566  0.36652  Biso   1.000  C
  C86      1.0000 0.96742  0.74418  0.48514  Biso   1.000  C
  C87      1.0000 0.95101  0.57352  0.38251  Biso   1.000  C
  C88      1.0000 0.95097  0.57352  0.38251  Biso   1.000  C
  C89      1.0000 0.95098  0.57355  0.38251  Biso   1.000  C
  C90      1.0000 0.95102  0.57355  0.38251  Biso   1.000  C
  C91      1.0000 0.62892  0.39846  0.74257  Biso   1.000  C
  C92      1.0000 0.62893  0.39850  0.74257  Biso   1.000  C
  C93      1.0000 0.62887  0.39845  0.74253  Biso   1.000  C
  C94      1.0000 0.68633  0.37955  0.81545  Biso   1.000  C
  C95      1.0000 0.68634  0.37959  0.81545  Biso   1.000  C
  C96      1.0000 0.68630  0.37959  0.81545  Biso   1.000  C
  C97      1.0000 0.68629  0.37955  0.81545  Biso   1.000  C
  C98      1.0000 0.26975  0.48058  0.90356  Biso   1.000  C
  C99      1.0000 0.28837  0.65632  0.00928  Biso   1.000  C
  C100     1.0000 0.28832  0.65629  0.00928  Biso   1.000  C
  C101     1.0000 0.31461  0.51907  0.84086  Biso   1.000  C
  C102     1.0000 0.31464  0.51907  0.84086  Biso   1.000  C
  C103     1.0000 0.31465  0.51911  0.84086  Biso   1.000  C
  C104     1.0000 0.31462  0.51911  0.84086  Biso   1.000  C
  C105     1.0000 0.33075  0.69211  0.94387  Biso   1.000  C
  C106     1.0000 0.88871  0.76535  0.48282  Biso   1.000  C
  H31      1.0000 0.82361  0.69912  0.46473  Biso   1.000  H
  H32      1.0000 0.82358  0.69916  0.46473  Biso   1.000  H
  C107     1.0000 0.88868  0.76535  0.48282  Biso   1.000  C
  C108     1.0000 0.86300  0.50763  0.32973  Biso   1.000  C
  C109     1.0000 0.86296  0.50763  0.32973  Biso   1.000  C
  C110     1.0000 0.78497  0.51102  0.35571  Biso   1.000  C
  C111     1.0000 0.78501  0.51106  0.35571  Biso   1.000  C
  C112     1.0000 0.94260  0.78215  0.49045  Biso   1.000  C
  C113     1.0000 0.94262  0.78213  0.49041  Biso   1.000  C
  C114     1.0000 0.94264  0.78218  0.49045  Biso   1.000  C
  H33      1.0000 0.00351  0.75547  0.49025  Biso   1.000  H
  H34      1.0000 0.00350  0.75545  0.49022  Biso   1.000  H
  C115     1.0000 0.91687  0.52654  0.33771  Biso   1.000  C
  C116     1.0000 0.91689  0.52650  0.33771  Biso   1.000  C
  C117     1.0000 0.00819  0.59746  0.38801  Biso   1.000  C
  C118     1.0000 0.00816  0.59746  0.38801  Biso   1.000  C
  C119     1.0000 0.61220  0.33753  0.73273  Biso   1.000  C
  H35      1.0000 0.60801  0.40413  0.71534  Biso   1.000  H
  C120     1.0000 0.61218  0.33757  0.73273  Biso   1.000  C
  H36      1.0000 0.60798  0.40417  0.71534  Biso   1.000  H
  C121     1.0000 0.62781  0.43097  0.79477  Biso   1.000  C
  C122     1.0000 0.62783  0.43095  0.79473  Biso   1.000  C
  C123     1.0000 0.62786  0.43100  0.79477  Biso   1.000  C
  C124     1.0000 0.61221  0.33757  0.73273  Biso   1.000  C
  C125     1.0000 0.64212  0.33027  0.77177  Biso   1.000  C
  H37      1.0000 0.70726  0.37327  0.84217  Biso   1.000  H
  C126     1.0000 0.65782  0.42438  0.83427  Biso   1.000  C
  C127     1.0000 0.64211  0.33026  0.77173  Biso   1.000  C
  C128     1.0000 0.65781  0.42436  0.83423  Biso   1.000  C
  H38      1.0000 0.70723  0.37331  0.84217  Biso   1.000  H
  C129     1.0000 0.64207  0.33026  0.77173  Biso   1.000  C
  H39      1.0000 0.70722  0.37327  0.84217  Biso   1.000  H
  H40      1.0000 0.70727  0.37331  0.84217  Biso   1.000  H
  C130     1.0000 0.65786  0.42438  0.83427  Biso   1.000  C
  C131     1.0000 0.29772  0.45339  0.87637  Biso   1.000  C
  C132     1.0000 0.25271  0.46350  0.94205  Biso   1.000  C
  C133     1.0000 0.29775  0.45337  0.87633  Biso   1.000  C
  C134     1.0000 0.25274  0.46346  0.94205  Biso   1.000  C
  C135     1.0000 0.29776  0.45339  0.87637  Biso   1.000  C
  C136     1.0000 0.25275  0.46350  0.94205  Biso   1.000  C
  C137     1.0000 0.29771  0.45337  0.87633  Biso   1.000  C
  C138     1.0000 0.25270  0.46346  0.94205  Biso   1.000  C
  C139     1.0000 0.32385  0.71038  0.02857  Biso   1.000  C
  C140     1.0000 0.32386  0.71042  0.02857  Biso   1.000  C
  H41      1.0000 0.27424  0.64430  0.03120  Biso   1.000  H
  C141     1.0000 0.32382  0.71038  0.02857  Biso   1.000  C
  H42      1.0000 0.27426  0.64428  0.03116  Biso   1.000  H
  C142     1.0000 0.32012  0.47257  0.84504  Biso   1.000  C
  C143     1.0000 0.33742  0.53975  0.80666  Biso   1.000  C
  C144     1.0000 0.34506  0.72839  0.99596  Biso   1.000  C
  H43      1.0000 0.34487  0.70410  0.92195  Biso   1.000  H
  H44      1.0000 0.34483  0.70406  0.92195  Biso   1.000  H
  O11      1.0000 0.87544  0.81258  0.49424  Biso   1.000  O
  H45      1.0000 0.84018  0.47612  0.29971  Biso   1.000  H
  H46      1.0000 0.84014  0.47612  0.29971  Biso   1.000  H
  H47      1.0000 0.77459  0.53393  0.38282  Biso   1.000  H
  H48      1.0000 0.77517  0.47413  0.35393  Biso   1.000  H
  H49      1.0000 0.77455  0.53393  0.38282  Biso   1.000  H
  C145     1.0000 0.75826  0.50805  0.30382  Biso   1.000  C
  C146     1.0000 0.75828  0.50801  0.30382  Biso   1.000  C
  H50      1.0000 0.77522  0.47417  0.35393  Biso   1.000  H
  O12      1.0000 0.96581  0.83814  0.50621  Biso   1.000  O
  O13      1.0000 0.96578  0.83814  0.50621  Biso   1.000  O
  H51      1.0000 0.93031  0.50784  0.31304  Biso   1.000  H
  H52      1.0000 0.93027  0.50784  0.31304  Biso   1.000  H
  C147     1.0000 0.03896  0.57424  0.41954  Biso   1.000  C
  C148     1.0000 0.03900  0.57424  0.41954  Biso   1.000  C
  H53      1.0000 0.01260  0.58676  0.35413  Biso   1.000  H
  H54      1.0000 0.02140  0.63766  0.40602  Biso   1.000  H
  H55      1.0000 0.01255  0.58672  0.35413  Biso   1.000  H
  H56      1.0000 0.02136  0.63762  0.40602  Biso   1.000  H
  C149     1.0000 0.57210  0.29210  0.69086  Biso   1.000  C
  C150     1.0000 0.57209  0.29206  0.69086  Biso   1.000  C
  C151     1.0000 0.57211  0.29204  0.69083  Biso   1.000  C
  C152     1.0000 0.57213  0.29210  0.69086  Biso   1.000  C
  C153     1.0000 0.60283  0.46887  0.80647  Biso   1.000  C
  C154     1.0000 0.60281  0.46885  0.80643  Biso   1.000  C
  C155     1.0000 0.60278  0.46885  0.80643  Biso   1.000  C
  C156     1.0000 0.63183  0.27740  0.76886  Biso   1.000  C
  C157     1.0000 0.63179  0.27736  0.76886  Biso   1.000  C
  C158     1.0000 0.66292  0.45569  0.88547  Biso   1.000  C
  C159     1.0000 0.66295  0.45568  0.88543  Biso   1.000  C
  H57      1.0000 0.30143  0.42228  0.87916  Biso   1.000  H
  H58      1.0000 0.25784  0.49590  0.97307  Biso   1.000  H
  C160     1.0000 0.19451  0.42678  0.91645  Biso   1.000  C
  H59      1.0000 0.27305  0.44318  0.95166  Biso   1.000  H
  C161     1.0000 0.19455  0.42678  0.91645  Biso   1.000  C
  O14      1.0000 0.33959  0.75128  0.07760  Biso   1.000  O
  O15      1.0000 0.33956  0.75132  0.07760  Biso   1.000  O
  O16      1.0000 0.33955  0.75128  0.07760  Biso   1.000  O
  O17      1.0000 0.33960  0.75132  0.07760  Biso   1.000  O
  H60      1.0000 0.33892  0.45437  0.82684  Biso   1.000  H
  C162     1.0000 0.39344  0.58467  0.83636  Biso   1.000  C
  H61      1.0000 0.31451  0.55504  0.79194  Biso   1.000  H
  H62      1.0000 0.33881  0.50885  0.77823  Biso   1.000  H
  H63      1.0000 0.31455  0.55508  0.79194  Biso   1.000  H
  H64      1.0000 0.33883  0.50890  0.77827  Biso   1.000  H
  O18      1.0000 0.37657  0.78482  0.02598  Biso   1.000  O
  O19      1.0000 0.37652  0.78478  0.02598  Biso   1.000  O
  B9       1.0000 0.92004  0.85337  0.50315  Biso   1.000  B
  B10      1.0000 0.92001  0.85332  0.50311  Biso   1.000  B
  B11      1.0000 0.91999  0.85336  0.50311  Biso   1.000  B
  B12      1.0000 0.92000  0.85337  0.50315  Biso   1.000  B
  B13      1.0000 0.92002  0.85336  0.50311  Biso   1.000  B
  H65      1.0000 0.77169  0.48876  0.27814  Biso   1.000  H
  H66      1.0000 0.76557  0.54543  0.30703  Biso   1.000  H
  H67      1.0000 0.72086  0.48942  0.29352  Biso   1.000  H
  H68      1.0000 0.77165  0.48874  0.27810  Biso   1.000  H
  H69      1.0000 0.77166  0.48876  0.27814  Biso   1.000  H
  H70      1.0000 0.72091  0.48946  0.29352  Biso   1.000  H
  H71      1.0000 0.77168  0.48874  0.27810  Biso   1.000  H
  H72      1.0000 0.05106  0.54866  0.39723  Biso   1.000  H
  H73      1.0000 0.06877  0.60433  0.44742  Biso   1.000  H
  H74      1.0000 0.05108  0.54862  0.39723  Biso   1.000  H
  H75      1.0000 0.06881  0.60433  0.44742  Biso   1.000  H
  H76      1.0000 0.01608  0.55542  0.43332  Biso   1.000  H
  H77      1.0000 0.05109  0.54866  0.39723  Biso   1.000  H
  H78      1.0000 0.05105  0.54862  0.39723  Biso   1.000  H
  C163     1.0000 0.53729  0.29857  0.64923  Biso   1.000  C
  C164     1.0000 0.53728  0.29853  0.64923  Biso   1.000  C
  C165     1.0000 0.56189  0.23925  0.68796  Biso   1.000  C
  C166     1.0000 0.56191  0.23924  0.68792  Biso   1.000  C
  C167     1.0000 0.56194  0.23929  0.68796  Biso   1.000  C
  H79      1.0000 0.58271  0.47337  0.78005  Biso   1.000  H
  C168     1.0000 0.60782  0.50019  0.85766  Biso   1.000  C
  C169     1.0000 0.59173  0.23187  0.72696  Biso   1.000  C
  C170     1.0000 0.59170  0.23187  0.72696  Biso   1.000  C
  C171     1.0000 0.65779  0.26927  0.81266  Biso   1.000  C
  C172     1.0000 0.63794  0.49360  0.89717  Biso   1.000  C
  C173     1.0000 0.63793  0.49356  0.89717  Biso   1.000  C
  H80      1.0000 0.68301  0.45126  0.91184  Biso   1.000  H
  H81      1.0000 0.68306  0.45129  0.91184  Biso   1.000  H
  H82      1.0000 0.17780  0.43939  0.89364  Biso   1.000  H
  H83      1.0000 0.17783  0.43935  0.89364  Biso   1.000  H
  H84      1.0000 0.17784  0.43939  0.89364  Biso   1.000  H
  H85      1.0000 0.17805  0.42869  0.94256  Biso   1.000  H
  H86      1.0000 0.19105  0.38920  0.89697  Biso   1.000  H
  H87      1.0000 0.17779  0.43935  0.89364  Biso   1.000  H
  H88      1.0000 0.17800  0.42866  0.94256  Biso   1.000  H
  H89      1.0000 0.19099  0.38915  0.89693  Biso   1.000  H
  H90      1.0000 0.19104  0.38919  0.89693  Biso   1.000  H
  B14      1.0000 0.37368  0.79408  0.07268  Biso   1.000  B
  B15      1.0000 0.37365  0.79412  0.07268  Biso   1.000  B
  B16      1.0000 0.37364  0.79408  0.07268  Biso   1.000  B
  B17      1.0000 0.37369  0.79412  0.07268  Biso   1.000  B
  H91      1.0000 0.41723  0.56839  0.84686  Biso   1.000  H
  H92      1.0000 0.39273  0.61356  0.86634  Biso   1.000  H
  H93      1.0000 0.40515  0.60007  0.81425  Biso   1.000  H
  H94      1.0000 0.41722  0.56835  0.84686  Biso   1.000  H
  H95      1.0000 0.41726  0.56839  0.84686  Biso   1.000  H
  H96      1.0000 0.39274  0.61360  0.86634  Biso   1.000  H
  H97      1.0000 0.39270  0.61356  0.86634  Biso   1.000  H
  C174     1.0000 0.92745  0.91625  0.52275  Biso   1.000  C
  C175     1.0000 0.92742  0.91625  0.52275  Biso   1.000  C
  H98      1.0000 0.53509  0.20875  0.65984  Biso   1.000  H
  H99      1.0000 0.53506  0.20875  0.65984  Biso   1.000  H
  H100     1.0000 0.50477  0.26614  0.63103  Biso   1.000  H
  H101     1.0000 0.52839  0.33087  0.66465  Biso   1.000  H
  C176     1.0000 0.56667  0.30536  0.61054  Biso   1.000  C
  O20      1.0000 0.58903  0.54039  0.87978  Biso   1.000  O
  O21      1.0000 0.58905  0.54037  0.87974  Biso   1.000  O
  H102     1.0000 0.58489  0.19656  0.72506  Biso   1.000  H
  H103     1.0000 0.58491  0.19654  0.72502  Biso   1.000  H
  H104     1.0000 0.58494  0.19660  0.72506  Biso   1.000  H
  H105     1.0000 0.66145  0.29907  0.84496  Biso   1.000  H
  H106     1.0000 0.66141  0.29907  0.84496  Biso   1.000  H
  C177     1.0000 0.71181  0.26814  0.81185  Biso   1.000  C
  H107     1.0000 0.63608  0.23456  0.81084  Biso   1.000  H
  C178     1.0000 0.71179  0.26818  0.81185  Biso   1.000  C
  O22      1.0000 0.63942  0.52788  0.94534  Biso   1.000  O
  C179     1.0000 0.39836  0.85500  0.11908  Biso   1.000  C
  C180     1.0000 0.88205  0.92847  0.52244  Biso   1.000  C
  C181     1.0000 0.97614  0.95876  0.53983  Biso   1.000  C
  C182     1.0000 0.88201  0.92843  0.52244  Biso   1.000  C
  C183     1.0000 0.88202  0.92847  0.52244  Biso   1.000  C
  C184     1.0000 0.97610  0.95876  0.53983  Biso   1.000  C
  C185     1.0000 0.88204  0.92843  0.52244  Biso   1.000  C
  H108     1.0000 0.54289  0.30465  0.58165  Biso   1.000  H
  H109     1.0000 0.57907  0.27546  0.59854  Biso   1.000  H
  H110     1.0000 0.59619  0.34006  0.62766  Biso   1.000  H
  H111     1.0000 0.59622  0.34005  0.62762  Biso   1.000  H
  B18      1.0000 0.60734  0.55657  0.93187  Biso   1.000  B
  B19      1.0000 0.60731  0.55660  0.93187  Biso   1.000  B
  H112     1.0000 0.70890  0.23056  0.79314  Biso   1.000  H
  H113     1.0000 0.72583  0.28987  0.79516  Biso   1.000  H
  H114     1.0000 0.72579  0.28987  0.79516  Biso   1.000  H
  H115     1.0000 0.73512  0.28350  0.84674  Biso   1.000  H
  C186     1.0000 0.42858  0.89852  0.11191  Biso   1.000  C
  C187     1.0000 0.39166  0.86479  0.16698  Biso   1.000  C
  C188     1.0000 0.42856  0.89847  0.11187  Biso   1.000  C
  C189     1.0000 0.39170  0.86483  0.16698  Biso   1.000  C
  C190     1.0000 0.88535  0.98317  0.53925  Biso   1.000  C
  C191     1.0000 0.88534  0.98314  0.53925  Biso   1.000  C
  H116     1.0000 0.84944  0.90008  0.51094  Biso   1.000  H
  H117     1.0000 0.84939  0.90004  0.51094  Biso   1.000  H
  C192     1.0000 0.88531  0.98317  0.53925  Biso   1.000  C
  C193     1.0000 0.97935  0.01343  0.55663  Biso   1.000  C
  C194     1.0000 0.97940  0.01347  0.55663  Biso   1.000  C
  H118     1.0000 0.00651  0.95066  0.53994  Biso   1.000  H
  H119     1.0000 0.00654  0.95066  0.53994  Biso   1.000  H
  C195     1.0000 0.60086  0.60631  0.97245  Biso   1.000  C
  C196     1.0000 0.60081  0.60627  0.97245  Biso   1.000  C
  C197     1.0000 0.45210  0.95173  0.15250  Biso   1.000  C
  H120     1.0000 0.43306  0.89190  0.07988  Biso   1.000  H
  C198     1.0000 0.45206  0.95169  0.15250  Biso   1.000  C
  C199     1.0000 0.41519  0.91802  0.20761  Biso   1.000  C
  H121     1.0000 0.37149  0.83572  0.17179  Biso   1.000  H
  H122     1.0000 0.37144  0.83568  0.17179  Biso   1.000  H
  B20      1.0000 0.83413  0.99626  0.53754  Biso   1.000  B
  B21      1.0000 0.83410  0.99626  0.53754  Biso   1.000  B
  C200     1.0000 0.93395  0.02565  0.55632  Biso   1.000  C
  C201     1.0000 0.93399  0.02565  0.55632  Biso   1.000  C
  B22      1.0000 0.03276  0.05828  0.57716  Biso   1.000  B
  B23      1.0000 0.03278  0.05826  0.57712  Biso   1.000  B
  B24      1.0000 0.03279  0.05824  0.57716  Biso   1.000  B
  C202     1.0000 0.57163  0.63359  0.95545  Biso   1.000  C
  C203     1.0000 0.62345  0.62382  0.02508  Biso   1.000  C
  C204     1.0000 0.62348  0.62379  0.02508  Biso   1.000  C
  C205     1.0000 0.44540  0.96151  0.20029  Biso   1.000  C
  B25      1.0000 0.48390  0.99874  0.14239  Biso   1.000  B
  C206     1.0000 0.44536  0.96151  0.20029  Biso   1.000  C
  B26      1.0000 0.48385  0.99870  0.14239  Biso   1.000  B
  B27      1.0000 0.40700  0.92645  0.25710  Biso   1.000  B
  B28      1.0000 0.40696  0.92641  0.25710  Biso   1.000  B
  O23      1.0000 0.78632  0.95465  0.52213  Biso   1.000  O
  O24      1.0000 0.83427  0.05045  0.55783  Biso   1.000  O
  O25      1.0000 0.83426  0.05042  0.55783  Biso   1.000  O
  H123     1.0000 0.93615  0.06223  0.56752  Biso   1.000  H
  H124     1.0000 0.93616  0.06227  0.56752  Biso   1.000  H
  H125     1.0000 0.93620  0.06225  0.56756  Biso   1.000  H
  O26      1.0000 0.04537  0.11484  0.59695  Biso   1.000  O
  O27      1.0000 0.08135  0.04823  0.57913  Biso   1.000  O
  O28      1.0000 0.04535  0.11488  0.59695  Biso   1.000  O
  O29      1.0000 0.08138  0.04823  0.57913  Biso   1.000  O
  H126     1.0000 0.55644  0.62189  0.92017  Biso   1.000  H
  C207     1.0000 0.56517  0.67851  0.99128  Biso   1.000  C
  C208     1.0000 0.56516  0.67847  0.99128  Biso   1.000  C
  C209     1.0000 0.56514  0.67851  0.99128  Biso   1.000  C
  H127     1.0000 0.64295  0.60550  0.03639  Biso   1.000  H
  C210     1.0000 0.61693  0.66868  0.06079  Biso   1.000  C
  H128     1.0000 0.64297  0.60546  0.03639  Biso   1.000  H
  C211     1.0000 0.61697  0.66872  0.06079  Biso   1.000  C
  H129     1.0000 0.46111  0.99713  0.22751  Biso   1.000  H
  H130     1.0000 0.46105  0.99708  0.22748  Biso   1.000  H
  H131     1.0000 0.46108  0.99708  0.22748  Biso   1.000  H
  O30      1.0000 0.49490  0.99639  0.09921  Biso   1.000  O
  O31      1.0000 0.49485  0.99637  0.09917  Biso   1.000  O
  O32      1.0000 0.49490  0.99641  0.09917  Biso   1.000  O
  O33      1.0000 0.50624  0.05530  0.18220  Biso   1.000  O
  O34      1.0000 0.50620  0.05530  0.18220  Biso   1.000  O
  O35      1.0000 0.37889  0.88680  0.26961  Biso   1.000  O
  O36      1.0000 0.37890  0.88684  0.26961  Biso   1.000  O
  O37      1.0000 0.42310  0.97913  0.30199  Biso   1.000  O
  O38      1.0000 0.37885  0.88680  0.26961  Biso   1.000  O
  O39      1.0000 0.42306  0.97909  0.30199  Biso   1.000  O
  C212     1.0000 0.75211  0.98295  0.53154  Biso   1.000  C
  C213     1.0000 0.75216  0.98298  0.53154  Biso   1.000  C
  C214     1.0000 0.78135  0.03934  0.55152  Biso   1.000  C
  C215     1.0000 0.78138  0.03934  0.55152  Biso   1.000  C
  C216     1.0000 0.09845  0.14076  0.61155  Biso   1.000  C
  C217     1.0000 0.11995  0.09972  0.60024  Biso   1.000  C
  C218     1.0000 0.11998  0.09972  0.60024  Biso   1.000  C
  B29      1.0000 0.53147  0.70732  0.97036  Biso   1.000  B
  B30      1.0000 0.53143  0.70728  0.97036  Biso   1.000  B
  C219     1.0000 0.58776  0.69600  0.04387  Biso   1.000  C
  C220     1.0000 0.58771  0.69596  0.04387  Biso   1.000  C
  B31      1.0000 0.64397  0.68959  0.11609  Biso   1.000  B
  B32      1.0000 0.64394  0.68962  0.11609  Biso   1.000  B
  B33      1.0000 0.64393  0.68959  0.11609  Biso   1.000  B
  B34      1.0000 0.64398  0.68962  0.11609  Biso   1.000  B
  C221     1.0000 0.52290  0.04798  0.10568  Biso   1.000  C
  C222     1.0000 0.52291  0.04802  0.10568  Biso   1.000  C
  C223     1.0000 0.52293  0.04798  0.10568  Biso   1.000  C
  C224     1.0000 0.52961  0.08290  0.15637  Biso   1.000  C
  C225     1.0000 0.37742  0.91020  0.31872  Biso   1.000  C
  C226     1.0000 0.37739  0.91024  0.31872  Biso   1.000  C
  C227     1.0000 0.37738  0.91020  0.31872  Biso   1.000  C
  C228     1.0000 0.37743  0.91024  0.31872  Biso   1.000  C
  C229     1.0000 0.40518  0.96690  0.33800  Biso   1.000  C
  C230     1.0000 0.40523  0.96694  0.33800  Biso   1.000  C
  C231     1.0000 0.69824  0.96466  0.52344  Biso   1.000  C
  C232     1.0000 0.69820  0.96466  0.52344  Biso   1.000  C
  C233     1.0000 0.75654  0.07745  0.56364  Biso   1.000  C
  C234     1.0000 0.13129  0.19638  0.63343  Biso   1.000  C
  C235     1.0000 0.13128  0.19634  0.63343  Biso   1.000  C
  C236     1.0000 0.13126  0.19638  0.63343  Biso   1.000  C
  C237     1.0000 0.17419  0.11425  0.61093  Biso   1.000  C
  C238     1.0000 0.17415  0.11425  0.61093  Biso   1.000  C
  O40      1.0000 0.50995  0.69060  0.91808  Biso   1.000  O
  O41      1.0000 0.50993  0.69055  0.91804  Biso   1.000  O
  O42      1.0000 0.50994  0.69059  0.91804  Biso   1.000  O
  O43      1.0000 0.52058  0.75149  0.00328  Biso   1.000  O
  H132     1.0000 0.58343  0.72600  0.06780  Biso   1.000  H
  O44      1.0000 0.64086  0.73370  0.15730  Biso   1.000  O
  O45      1.0000 0.64087  0.73374  0.15730  Biso   1.000  O
  O46      1.0000 0.67654  0.66609  0.13809  Biso   1.000  O
  O47      1.0000 0.64090  0.73370  0.15730  Biso   1.000  O
  O48      1.0000 0.67658  0.66613  0.13809  Biso   1.000  O
  C239     1.0000 0.54167  0.07006  0.07435  Biso   1.000  C
  C240     1.0000 0.54173  0.07012  0.07438  Biso   1.000  C
  C241     1.0000 0.54171  0.07006  0.07435  Biso   1.000  C
  C242     1.0000 0.55522  0.13989  0.17581  Biso   1.000  C
  C243     1.0000 0.55525  0.13989  0.17581  Biso   1.000  C
  C244     1.0000 0.35389  0.88976  0.34881  Biso   1.000  C
  C245     1.0000 0.35390  0.88980  0.34881  Biso   1.000  C
  C246     1.0000 0.35393  0.88980  0.34881  Biso   1.000  C
  C247     1.0000 0.40947  0.00303  0.38742  Biso   1.000  C
  C248     1.0000 0.40943  0.00303  0.38742  Biso   1.000  C
  C249     1.0000 0.40945  0.00298  0.38738  Biso   1.000  C
  C250     1.0000 0.40942  0.00301  0.38738  Biso   1.000  C
  H133     1.0000 0.67862  0.92695  0.51004  Biso   1.000  H
  H134     1.0000 0.67863  0.92699  0.51004  Biso   1.000  H
  C251     1.0000 0.67335  0.00275  0.53553  Biso   1.000  C
  C252     1.0000 0.67334  0.00271  0.53553  Biso   1.000  C
  C253     1.0000 0.67338  0.00275  0.53553  Biso   1.000  C
  C254     1.0000 0.70255  0.05913  0.55555  Biso   1.000  C
  H135     1.0000 0.77607  0.11524  0.57704  Biso   1.000  H
  C255     1.0000 0.70259  0.05917  0.55555  Biso   1.000  C
  H136     1.0000 0.11700  0.22378  0.64094  Biso   1.000  H
  C256     1.0000 0.18561  0.21089  0.64416  Biso   1.000  C
  H137     1.0000 0.11697  0.22378  0.64094  Biso   1.000  H
  C257     1.0000 0.18555  0.21083  0.64412  Biso   1.000  C
  H138     1.0000 0.11696  0.22374  0.64094  Biso   1.000  H
  C258     1.0000 0.18557  0.21089  0.64416  Biso   1.000  C
  C259     1.0000 0.18558  0.21083  0.64412  Biso   1.000  C
  H139     1.0000 0.11699  0.22374  0.64094  Biso   1.000  H
  H140     1.0000 0.18855  0.08685  0.60342  Biso   1.000  H
  C260     1.0000 0.20697  0.16989  0.63285  Biso   1.000  C
  H141     1.0000 0.18856  0.08687  0.60346  Biso   1.000  H
  C261     1.0000 0.20699  0.16985  0.63285  Biso   1.000  C
  H142     1.0000 0.18858  0.08685  0.60342  Biso   1.000  H
  H143     1.0000 0.18859  0.08684  0.60346  Biso   1.000  H
  C262     1.0000 0.48397  0.72562  0.91638  Biso   1.000  C
  C263     1.0000 0.48393  0.72558  0.91638  Biso   1.000  C
  C264     1.0000 0.48395  0.72556  0.91634  Biso   1.000  C
  C265     1.0000 0.49065  0.76111  0.96688  Biso   1.000  C
  C266     1.0000 0.49064  0.76109  0.96684  Biso   1.000  C
  C267     1.0000 0.49067  0.76106  0.96684  Biso   1.000  C
  C268     1.0000 0.67145  0.73821  0.20230  Biso   1.000  C
  C269     1.0000 0.69308  0.69731  0.19080  Biso   1.000  C
  C270     1.0000 0.69304  0.69731  0.19080  Biso   1.000  C
  C271     1.0000 0.56733  0.12721  0.09379  Biso   1.000  C
  C272     1.0000 0.56735  0.12717  0.09379  Biso   1.000  C
  H144     1.0000 0.53722  0.04681  0.04038  Biso   1.000  H
  C273     1.0000 0.57401  0.16205  0.14448  Biso   1.000  C
  C274     1.0000 0.57402  0.16209  0.14448  Biso   1.000  C
  C275     1.0000 0.57405  0.16205  0.14448  Biso   1.000  C
  H145     1.0000 0.55976  0.16332  0.20982  Biso   1.000  H
  H146     1.0000 0.55971  0.16330  0.20978  Biso   1.000  H
  H147     1.0000 0.55972  0.16332  0.20982  Biso   1.000  H
  H148     1.0000 0.55975  0.16330  0.20978  Biso   1.000  H
  H149     1.0000 0.33532  0.85196  0.33591  Biso   1.000  H
  H150     1.0000 0.33527  0.85192  0.33591  Biso   1.000  H
  C276     1.0000 0.35819  0.92590  0.39830  Biso   1.000  C
  C277     1.0000 0.35824  0.92593  0.39830  Biso   1.000  C
  C278     1.0000 0.38602  0.98256  0.41759  Biso   1.000  C
  H151     1.0000 0.42804  0.04091  0.40040  Biso   1.000  H
  H152     1.0000 0.42807  0.04091  0.40040  Biso   1.000  H
  C279     1.0000 0.61302  0.98337  0.52724  Biso   1.000  C
  C280     1.0000 0.66659  0.09399  0.56945  Biso   1.000  C
  C281     1.0000 0.66657  0.09393  0.56941  Biso   1.000  C
  C282     1.0000 0.66658  0.09395  0.56945  Biso   1.000  C
  C283     1.0000 0.66655  0.09397  0.56941  Biso   1.000  C
  C284     1.0000 0.22571  0.27005  0.67084  Biso   1.000  C
  C285     1.0000 0.22568  0.27005  0.67084  Biso   1.000  C
  C286     1.0000 0.22569  0.27009  0.67084  Biso   1.000  C
  C287     1.0000 0.26997  0.19315  0.64993  Biso   1.000  C
  C288     1.0000 0.26998  0.19318  0.64993  Biso   1.000  C
  C289     1.0000 0.45446  0.73001  0.87498  Biso   1.000  C
  C290     1.0000 0.45444  0.72999  0.87494  Biso   1.000  C
  C291     1.0000 0.46789  0.80099  0.97598  Biso   1.000  C
  C292     1.0000 0.46784  0.80097  0.97594  Biso   1.000  C
  C293     1.0000 0.46785  0.80099  0.97598  Biso   1.000  C
  C294     1.0000 0.46788  0.80097  0.97594  Biso   1.000  C
  C295     1.0000 0.68296  0.77543  0.25362  Biso   1.000  C
  C296     1.0000 0.68298  0.77538  0.25358  Biso   1.000  C
  C297     1.0000 0.68300  0.77543  0.25362  Biso   1.000  C
  C298     1.0000 0.68294  0.77538  0.25358  Biso   1.000  C
  C299     1.0000 0.72608  0.69360  0.23042  Biso   1.000  C
  C300     1.0000 0.72608  0.69362  0.23038  Biso   1.000  C
  C301     1.0000 0.72607  0.69358  0.23038  Biso   1.000  C
  C302     1.0000 0.58860  0.15088  0.06188  Biso   1.000  C
  C303     1.0000 0.58864  0.15088  0.06188  Biso   1.000  C
  C304     1.0000 0.60214  0.22310  0.15889  Biso   1.000  C
  C305     1.0000 0.60211  0.22310  0.15889  Biso   1.000  C
  C306     1.0000 0.33360  0.90610  0.43060  Biso   1.000  C
  C307     1.0000 0.33361  0.90613  0.43060  Biso   1.000  C
  C308     1.0000 0.33357  0.90613  0.43060  Biso   1.000  C
  C309     1.0000 0.38717  0.01672  0.47282  Biso   1.000  C
  C310     1.0000 0.38713  0.01672  0.47282  Biso   1.000  C
  H153     1.0000 0.59363  0.94327  0.51194  Biso   1.000  H
  H154     1.0000 0.59360  0.94327  0.51194  Biso   1.000  H
  C311     1.0000 0.61418  0.01756  0.58247  Biso   1.000  C
  C312     1.0000 0.59503  0.01296  0.49792  Biso   1.000  C
  C313     1.0000 0.61415  0.01756  0.58247  Biso   1.000  C
  C314     1.0000 0.59505  0.01292  0.49792  Biso   1.000  C
  C315     1.0000 0.61414  0.01752  0.58247  Biso   1.000  C
  C316     1.0000 0.61417  0.01752  0.58247  Biso   1.000  C
  H155     1.0000 0.68506  0.13425  0.58494  Biso   1.000  H
  C317     1.0000 0.64196  0.07415  0.60175  Biso   1.000  C
  C318     1.0000 0.62258  0.06987  0.51853  Biso   1.000  C
  H156     1.0000 0.68510  0.13425  0.58494  Biso   1.000  H
  C319     1.0000 0.64200  0.07419  0.60175  Biso   1.000  C
  C320     1.0000 0.62255  0.06987  0.51853  Biso   1.000  C
  C321     1.0000 0.26260  0.26939  0.71836  Biso   1.000  C
  C322     1.0000 0.26117  0.27335  0.63924  Biso   1.000  C
  C323     1.0000 0.26259  0.26937  0.71832  Biso   1.000  C
  H157     1.0000 0.21079  0.29927  0.67936  Biso   1.000  H
  C324     1.0000 0.26259  0.26935  0.71836  Biso   1.000  C
  C325     1.0000 0.26255  0.26937  0.71832  Biso   1.000  C
  H158     1.0000 0.21081  0.29925  0.67932  Biso   1.000  H
  C326     1.0000 0.28188  0.23196  0.62545  Biso   1.000  C
  C327     1.0000 0.28409  0.22848  0.70686  Biso   1.000  C
  H159     1.0000 0.28546  0.16457  0.64125  Biso   1.000  H
  C328     1.0000 0.28408  0.22845  0.70686  Biso   1.000  C
  C329     1.0000 0.43164  0.76988  0.88415  Biso   1.000  C
  H160     1.0000 0.44993  0.70615  0.84124  Biso   1.000  H
  H161     1.0000 0.44990  0.70619  0.84124  Biso   1.000  H
  C330     1.0000 0.43835  0.80538  0.93466  Biso   1.000  C
  C331     1.0000 0.43836  0.80541  0.93466  Biso   1.000  C
  C332     1.0000 0.43831  0.80538  0.93466  Biso   1.000  C
  H162     1.0000 0.47222  0.82468  0.00967  Biso   1.000  H
  H163     1.0000 0.47227  0.82471  0.00967  Biso   1.000  H
  C333     1.0000 0.71610  0.77160  0.29320  Biso   1.000  C
  C334     1.0000 0.71608  0.77163  0.29320  Biso   1.000  C
  H164     1.0000 0.66855  0.80279  0.26129  Biso   1.000  H
  C335     1.0000 0.71607  0.77160  0.29320  Biso   1.000  C
  H165     1.0000 0.66860  0.80283  0.26129  Biso   1.000  H
  C336     1.0000 0.73759  0.73069  0.28169  Biso   1.000  C
  C337     1.0000 0.73757  0.73073  0.28169  Biso   1.000  C
  C338     1.0000 0.73756  0.73069  0.28169  Biso   1.000  C
  H166     1.0000 0.74048  0.66623  0.22271  Biso   1.000  H
  H167     1.0000 0.74046  0.66617  0.22267  Biso   1.000  H
  H168     1.0000 0.74051  0.66619  0.22271  Biso   1.000  H
  C339     1.0000 0.73760  0.73073  0.28169  Biso   1.000  C
  C340     1.0000 0.56184  0.19470  0.06540  Biso   1.000  C
  C341     1.0000 0.56181  0.19470  0.06540  Biso   1.000  C
  C342     1.0000 0.64602  0.18790  0.09549  Biso   1.000  C
  H169     1.0000 0.58350  0.12419  0.02679  Biso   1.000  H
  H170     1.0000 0.58354  0.12419  0.02679  Biso   1.000  H
  C343     1.0000 0.64606  0.18790  0.09549  Biso   1.000  C
  C344     1.0000 0.56852  0.23020  0.11590  Biso   1.000  C
  C345     1.0000 0.56856  0.23020  0.11590  Biso   1.000  C
  H171     1.0000 0.60733  0.24920  0.19429  Biso   1.000  H
  H172     1.0000 0.60736  0.24920  0.19429  Biso   1.000  H
  C346     1.0000 0.65143  0.22507  0.14499  Biso   1.000  C
  C347     1.0000 0.65140  0.22511  0.14499  Biso   1.000  C
  C348     1.0000 0.37762  0.93025  0.48153  Biso   1.000  C
  C349     1.0000 0.29763  0.94092  0.44451  Biso   1.000  C
  C350     1.0000 0.37761  0.93023  0.48149  Biso   1.000  C
  H173     1.0000 0.31510  0.86583  0.41511  Biso   1.000  H
  C351     1.0000 0.29761  0.94095  0.44451  Biso   1.000  C
  C352     1.0000 0.29760  0.94092  0.44451  Biso   1.000  C
  C353     1.0000 0.32685  0.99733  0.46453  Biso   1.000  C
  C354     1.0000 0.40514  0.98716  0.50213  Biso   1.000  C
  C355     1.0000 0.32681  0.99733  0.46453  Biso   1.000  C
  C356     1.0000 0.32680  0.99731  0.46449  Biso   1.000  C
  C357     1.0000 0.40510  0.98712  0.50213  Biso   1.000  C
  C358     1.0000 0.32684  0.99735  0.46449  Biso   1.000  C
  C359     1.0000 0.40512  0.98711  0.50209  Biso   1.000  C
  H174     1.0000 0.40652  0.05681  0.48811  Biso   1.000  H
  H175     1.0000 0.40657  0.05685  0.48811  Biso   1.000  H
  C360     1.0000 0.55518  0.98534  0.45021  Biso   1.000  C
  C361     1.0000 0.59072  0.99705  0.61263  Biso   1.000  C
  C362     1.0000 0.59073  0.99709  0.61263  Biso   1.000  C
  C363     1.0000 0.61003  0.09904  0.49153  Biso   1.000  C
  C364     1.0000 0.64630  0.11032  0.65125  Biso   1.000  C
  C365     1.0000 0.64627  0.11032  0.65125  Biso   1.000  C
  C366     1.0000 0.64626  0.11028  0.65125  Biso   1.000  C
  C367     1.0000 0.64629  0.11028  0.65125  Biso   1.000  C
  C368     1.0000 0.27106  0.31317  0.62073  Biso   1.000  C
  C369     1.0000 0.27109  0.31313  0.62073  Biso   1.000  C
  C370     1.0000 0.27411  0.30648  0.76964  Biso   1.000  C
  C371     1.0000 0.27408  0.30648  0.76964  Biso   1.000  C
  C372     1.0000 0.27410  0.30644  0.76964  Biso   1.000  C
  C373     1.0000 0.31259  0.23027  0.59315  Biso   1.000  C
  C374     1.0000 0.31258  0.23023  0.59315  Biso   1.000  C
  C375     1.0000 0.31254  0.23025  0.59312  Biso   1.000  C
  C376     1.0000 0.31720  0.22469  0.74644  Biso   1.000  C
  C377     1.0000 0.31719  0.22465  0.74644  Biso   1.000  C
  C378     1.0000 0.31717  0.22469  0.74644  Biso   1.000  C
  C379     1.0000 0.39805  0.77698  0.84117  Biso   1.000  C
  C380     1.0000 0.39801  0.77698  0.84117  Biso   1.000  C
  C381     1.0000 0.41159  0.84920  0.93818  Biso   1.000  C
  C382     1.0000 0.41154  0.84918  0.93814  Biso   1.000  C
  C383     1.0000 0.41156  0.84920  0.93818  Biso   1.000  C
  C384     1.0000 0.73019  0.80694  0.35013  Biso   1.000  C
  C385     1.0000 0.73018  0.80692  0.35009  Biso   1.000  C
  C386     1.0000 0.73021  0.80692  0.35009  Biso   1.000  C
  C387     1.0000 0.73023  0.80694  0.35013  Biso   1.000  C
  C388     1.0000 0.77448  0.73003  0.32921  Biso   1.000  C
  C389     1.0000 0.77452  0.73003  0.32921  Biso   1.000  C
  C390     1.0000 0.53230  0.19909  0.02408  Biso   1.000  C
  C391     1.0000 0.53234  0.19909  0.02408  Biso   1.000  C
  C392     1.0000 0.69034  0.18781  0.08039  Biso   1.000  C
  C393     1.0000 0.54574  0.27008  0.12508  Biso   1.000  C
  C394     1.0000 0.54570  0.27008  0.12508  Biso   1.000  C
  C395     1.0000 0.54571  0.27011  0.12508  Biso   1.000  C
  C396     1.0000 0.54575  0.27011  0.12508  Biso   1.000  C
  C397     1.0000 0.70136  0.26220  0.17930  Biso   1.000  C
  C398     1.0000 0.39013  0.90104  0.50852  Biso   1.000  C
  C399     1.0000 0.39009  0.90104  0.50852  Biso   1.000  C
  C400     1.0000 0.24362  0.92263  0.43641  Biso   1.000  C
  C401     1.0000 0.24358  0.92263  0.43641  Biso   1.000  C
  C402     1.0000 0.44497  0.01472  0.54981  Biso   1.000  C
  C403     1.0000 0.44493  0.01472  0.54981  Biso   1.000  C
  C404     1.0000 0.30196  0.03542  0.47661  Biso   1.000  C
  C405     1.0000 0.53012  0.92406  0.42244  Biso   1.000  C
  C406     1.0000 0.53008  0.92406  0.42244  Biso   1.000  C
  C407     1.0000 0.54264  0.01462  0.42314  Biso   1.000  C
  C408     1.0000 0.54268  0.01466  0.42314  Biso   1.000  C
  H176     1.0000 0.57212  0.95917  0.59966  Biso   1.000  H
  H177     1.0000 0.57214  0.95915  0.59962  Biso   1.000  H
  C409     1.0000 0.59497  0.03318  0.66205  Biso   1.000  C
  C410     1.0000 0.59496  0.03314  0.66205  Biso   1.000  C
  C411     1.0000 0.59501  0.03318  0.66205  Biso   1.000  C
  C412     1.0000 0.57004  0.07142  0.44382  Biso   1.000  C
  C413     1.0000 0.64146  0.15964  0.50993  Biso   1.000  C
  C414     1.0000 0.57008  0.07146  0.44382  Biso   1.000  C
  C415     1.0000 0.64150  0.15967  0.50993  Biso   1.000  C
  C416     1.0000 0.62278  0.08988  0.68134  Biso   1.000  C
  H178     1.0000 0.66488  0.14816  0.66414  Biso   1.000  H
  C417     1.0000 0.62277  0.08984  0.68134  Biso   1.000  C
  C418     1.0000 0.62281  0.08988  0.68134  Biso   1.000  C
  C419     1.0000 0.25150  0.35958  0.63583  Biso   1.000  C
  C420     1.0000 0.30167  0.31137  0.58843  Biso   1.000  C
  C421     1.0000 0.25149  0.35954  0.63583  Biso   1.000  C
  C422     1.0000 0.25146  0.35958  0.63583  Biso   1.000  C
  C423     1.0000 0.30170  0.31133  0.58843  Biso   1.000  C
  H179     1.0000 0.25969  0.33389  0.77734  Biso   1.000  H
  C424     1.0000 0.30708  0.30277  0.80925  Biso   1.000  C
  H180     1.0000 0.25971  0.33385  0.77734  Biso   1.000  H
  C425     1.0000 0.32238  0.26998  0.57464  Biso   1.000  C
  C426     1.0000 0.32237  0.26994  0.57464  Biso   1.000  C
  C427     1.0000 0.33407  0.18457  0.57735  Biso   1.000  C
  C428     1.0000 0.33410  0.18455  0.57731  Biso   1.000  C
  C429     1.0000 0.33410  0.18453  0.57735  Biso   1.000  C
  C430     1.0000 0.32871  0.26187  0.79775  Biso   1.000  C
  H181     1.0000 0.33160  0.19729  0.73877  Biso   1.000  H
  H182     1.0000 0.33160  0.19725  0.73877  Biso   1.000  H
  C431     1.0000 0.32868  0.26187  0.79775  Biso   1.000  C
  H183     1.0000 0.33156  0.19727  0.73873  Biso   1.000  H
  C432     1.0000 0.42618  0.83803  0.85557  Biso   1.000  C
  C433     1.0000 0.42613  0.83801  0.85553  Biso   1.000  C
  C434     1.0000 0.42616  0.83798  0.85553  Biso   1.000  C
  H184     1.0000 0.39286  0.75088  0.80577  Biso   1.000  H
  C435     1.0000 0.34874  0.77495  0.85503  Biso   1.000  C
  H185     1.0000 0.39282  0.75087  0.80573  Biso   1.000  H
  C436     1.0000 0.34876  0.77501  0.85507  Biso   1.000  C
  H186     1.0000 0.39283  0.75088  0.80577  Biso   1.000  H
  C437     1.0000 0.34870  0.77495  0.85503  Biso   1.000  C
  C438     1.0000 0.34872  0.77497  0.85507  Biso   1.000  C
  H187     1.0000 0.39285  0.75087  0.80573  Biso   1.000  H
  C439     1.0000 0.43288  0.87291  0.90627  Biso   1.000  C
  C440     1.0000 0.43283  0.87287  0.90627  Biso   1.000  C
  C441     1.0000 0.43284  0.87291  0.90627  Biso   1.000  C
  C442     1.0000 0.43287  0.87287  0.90627  Biso   1.000  C
  C443     1.0000 0.35417  0.81218  0.90456  Biso   1.000  C
  H188     1.0000 0.41669  0.87590  0.97327  Biso   1.000  H
  C444     1.0000 0.35413  0.81218  0.90456  Biso   1.000  C
  H189     1.0000 0.41665  0.87590  0.97327  Biso   1.000  H
  C445     1.0000 0.71831  0.76812  0.37460  Biso   1.000  C
  H190     1.0000 0.71469  0.83552  0.35880  Biso   1.000  H
  C446     1.0000 0.71828  0.76812  0.37460  Biso   1.000  C
  H191     1.0000 0.71470  0.83555  0.35880  Biso   1.000  H
  C447     1.0000 0.79320  0.83023  0.36721  Biso   1.000  C
  C448     1.0000 0.79322  0.83019  0.36721  Biso   1.000  C
  C449     1.0000 0.81460  0.78923  0.35590  Biso   1.000  C
  C450     1.0000 0.73902  0.72673  0.36082  Biso   1.000  C
  H192     1.0000 0.78941  0.70081  0.32069  Biso   1.000  H
  C451     1.0000 0.50951  0.23901  0.03318  Biso   1.000  C
  C452     1.0000 0.50954  0.23897  0.03318  Biso   1.000  C
  H193     1.0000 0.52794  0.17540  0.99038  Biso   1.000  H
  H194     1.0000 0.52792  0.17539  0.99035  Biso   1.000  H
  H195     1.0000 0.52793  0.17537  0.99038  Biso   1.000  H
  H196     1.0000 0.52789  0.17539  0.99035  Biso   1.000  H
  C453     1.0000 0.74020  0.22490  0.11478  Biso   1.000  C
  C454     1.0000 0.68495  0.14699  0.02698  Biso   1.000  C
  C455     1.0000 0.51623  0.27450  0.08368  Biso   1.000  C
  C456     1.0000 0.51622  0.27446  0.08368  Biso   1.000  C
  H197     1.0000 0.55021  0.29387  0.15877  Biso   1.000  H
  H198     1.0000 0.55023  0.29393  0.15881  Biso   1.000  H
  H199     1.0000 0.55024  0.29387  0.15877  Biso   1.000  H
  H200     1.0000 0.55026  0.29393  0.15881  Biso   1.000  H
  C457     1.0000 0.74575  0.26211  0.16419  Biso   1.000  C
  C458     1.0000 0.74570  0.26207  0.16419  Biso   1.000  C
  C459     1.0000 0.70873  0.29642  0.23561  Biso   1.000  C
  C460     1.0000 0.74574  0.26207  0.16419  Biso   1.000  C
  C461     1.0000 0.70875  0.29639  0.23561  Biso   1.000  C
  C462     1.0000 0.74571  0.26211  0.16419  Biso   1.000  C
  C463     1.0000 0.43011  0.92862  0.55624  Biso   1.000  C
  C464     1.0000 0.35869  0.84041  0.49013  Biso   1.000  C
  C465     1.0000 0.43016  0.92866  0.55624  Biso   1.000  C
  C466     1.0000 0.35874  0.84045  0.49013  Biso   1.000  C
  H201     1.0000 0.22412  0.88485  0.42301  Biso   1.000  H
  C467     1.0000 0.21881  0.96076  0.44849  Biso   1.000  C
  H202     1.0000 0.22408  0.88481  0.42301  Biso   1.000  H
  C468     1.0000 0.21880  0.96072  0.44849  Biso   1.000  C
  C469     1.0000 0.45751  0.98542  0.57692  Biso   1.000  C
  C470     1.0000 0.45756  0.98546  0.57692  Biso   1.000  C
  C471     1.0000 0.47009  0.07606  0.57761  Biso   1.000  C
  H203     1.0000 0.32158  0.07313  0.49001  Biso   1.000  H
  C472     1.0000 0.24804  0.01710  0.46852  Biso   1.000  C
  H204     1.0000 0.32154  0.07313  0.49001  Biso   1.000  H
  C473     1.0000 0.24808  0.01713  0.46852  Biso   1.000  C
  H205     1.0000 0.51451  0.91242  0.38573  Biso   1.000  H
  H206     1.0000 0.55631  0.90767  0.42682  Biso   1.000  H
  H207     1.0000 0.51448  0.91246  0.38573  Biso   1.000  H
  H208     1.0000 0.55627  0.90763  0.42682  Biso   1.000  H
  C474     1.0000 0.48779  0.90517  0.44425  Biso   1.000  C
  C475     1.0000 0.48781  0.90515  0.44421  Biso   1.000  C
  H209     1.0000 0.51603  0.99617  0.39123  Biso   1.000  H
  H210     1.0000 0.51598  0.99614  0.39123  Biso   1.000  H
  O49      1.0000 0.57706  0.02096  0.69807  Biso   1.000  O
  O50      1.0000 0.57709  0.02096  0.69807  Biso   1.000  O
  O51      1.0000 0.57705  0.02097  0.69803  Biso   1.000  O
  H211     1.0000 0.56175  0.09104  0.42573  Biso   1.000  H
  H212     1.0000 0.56176  0.09107  0.42573  Biso   1.000  H
  H213     1.0000 0.67897  0.16665  0.52143  Biso   1.000  H
  C476     1.0000 0.62619  0.19525  0.55543  Biso   1.000  C
  H214     1.0000 0.63424  0.16976  0.48173  Biso   1.000  H
  C477     1.0000 0.62615  0.19525  0.55543  Biso   1.000  C
  H215     1.0000 0.67896  0.16662  0.52143  Biso   1.000  H
  H216     1.0000 0.63426  0.16973  0.48173  Biso   1.000  H
  C478     1.0000 0.62614  0.19522  0.55543  Biso   1.000  C
  H217     1.0000 0.67900  0.16665  0.52143  Biso   1.000  H
  C479     1.0000 0.62618  0.19522  0.55543  Biso   1.000  C
  O52      1.0000 0.62130  0.11328  0.73044  Biso   1.000  O
  O53      1.0000 0.62127  0.11328  0.73044  Biso   1.000  O
  O54      1.0000 0.62126  0.11324  0.73044  Biso   1.000  O
  O55      1.0000 0.62129  0.11324  0.73044  Biso   1.000  O
  H218     1.0000 0.30827  0.33797  0.57604  Biso   1.000  H
  H219     1.0000 0.30830  0.33793  0.57604  Biso   1.000  H
  H220     1.0000 0.21511  0.34576  0.63463  Biso   1.000  H
  H221     1.0000 0.21507  0.34576  0.63463  Biso   1.000  H
  H222     1.0000 0.25279  0.37596  0.61186  Biso   1.000  H
  H223     1.0000 0.25275  0.37598  0.61182  Biso   1.000  H
  C480     1.0000 0.28652  0.40374  0.69125  Biso   1.000  C
  H224     1.0000 0.25279  0.37598  0.61182  Biso   1.000  H
  O56      1.0000 0.32362  0.33399  0.86196  Biso   1.000  O
  O57      1.0000 0.32361  0.33395  0.86196  Biso   1.000  O
  O58      1.0000 0.32358  0.33399  0.86196  Biso   1.000  O
  H225     1.0000 0.34288  0.26878  0.55303  Biso   1.000  H
  H226     1.0000 0.34287  0.26874  0.55303  Biso   1.000  H
  C481     1.0000 0.38230  0.19408  0.62034  Biso   1.000  C
  H227     1.0000 0.30647  0.14944  0.56814  Biso   1.000  H
  C482     1.0000 0.38226  0.19405  0.62034  Biso   1.000  C
  H228     1.0000 0.34397  0.18198  0.54684  Biso   1.000  H
  H229     1.0000 0.30644  0.14948  0.56814  Biso   1.000  H
  C483     1.0000 0.38227  0.19408  0.62034  Biso   1.000  C
  H230     1.0000 0.34399  0.18194  0.54684  Biso   1.000  H
  C484     1.0000 0.38229  0.19405  0.62034  Biso   1.000  C
  O59      1.0000 0.35929  0.26638  0.84275  Biso   1.000  O
  C485     1.0000 0.44494  0.86019  0.82424  Biso   1.000  C
  C486     1.0000 0.29887  0.73788  0.82076  Biso   1.000  C
  C487     1.0000 0.29883  0.73788  0.82076  Biso   1.000  C
  C488     1.0000 0.45846  0.92996  0.92567  Biso   1.000  C
  C489     1.0000 0.45843  0.93000  0.92567  Biso   1.000  C
  C490     1.0000 0.30986  0.81227  0.91967  Biso   1.000  C
  C491     1.0000 0.30983  0.81231  0.91967  Biso   1.000  C
  C492     1.0000 0.68760  0.76981  0.40690  Biso   1.000  C
  C493     1.0000 0.68758  0.76985  0.40690  Biso   1.000  C
  C494     1.0000 0.68757  0.76981  0.40690  Biso   1.000  C
  C495     1.0000 0.68761  0.76985  0.40690  Biso   1.000  C
  C496     1.0000 0.82599  0.88581  0.38909  Biso   1.000  C
  C497     1.0000 0.82604  0.88583  0.38913  Biso   1.000  C
  C498     1.0000 0.72909  0.68693  0.37929  Biso   1.000  C
  C499     1.0000 0.72908  0.68689  0.37929  Biso   1.000  C
  C500     1.0000 0.86891  0.80374  0.36662  Biso   1.000  C
  O60      1.0000 0.47961  0.24859  0.99677  Biso   1.000  O
  H231     1.0000 0.76992  0.22476  0.10467  Biso   1.000  H
  H232     1.0000 0.76993  0.22480  0.10467  Biso   1.000  H
  H233     1.0000 0.65589  0.14578  0.00158  Biso   1.000  H
  H234     1.0000 0.71703  0.15931  0.01920  Biso   1.000  H
  H235     1.0000 0.71705  0.15928  0.01920  Biso   1.000  H
  C501     1.0000 0.67455  0.08788  0.02319  Biso   1.000  C
  O61      1.0000 0.49024  0.30948  0.08198  Biso   1.000  O
  O62      1.0000 0.49020  0.30948  0.08198  Biso   1.000  O
  O63      1.0000 0.49021  0.30951  0.08198  Biso   1.000  O
  O64      1.0000 0.49025  0.30951  0.08198  Biso   1.000  O
  H236     1.0000 0.77904  0.28691  0.18720  Biso   1.000  H
  H237     1.0000 0.77907  0.28691  0.18720  Biso   1.000  H
  C502     1.0000 0.69145  0.34471  0.23801  Biso   1.000  C
  H238     1.0000 0.74552  0.31008  0.25648  Biso   1.000  H
  H239     1.0000 0.68743  0.27411  0.24831  Biso   1.000  H
  H240     1.0000 0.74554  0.31014  0.25652  Biso   1.000  H
  H241     1.0000 0.74556  0.31008  0.25648  Biso   1.000  H
  H242     1.0000 0.74558  0.31014  0.25652  Biso   1.000  H
  H243     1.0000 0.43840  0.90905  0.57432  Biso   1.000  H
  H244     1.0000 0.36593  0.83036  0.51832  Biso   1.000  H
  C503     1.0000 0.37402  0.80486  0.44462  Biso   1.000  C
  H245     1.0000 0.32119  0.83343  0.47863  Biso   1.000  H
  H246     1.0000 0.36588  0.83032  0.51832  Biso   1.000  H
  H247     1.0000 0.32124  0.83346  0.47863  Biso   1.000  H
  O65      1.0000 0.16593  0.94966  0.44222  Biso   1.000  O
  O66      1.0000 0.16589  0.94963  0.44222  Biso   1.000  O
  H248     1.0000 0.48418  0.00395  0.60883  Biso   1.000  H
  H249     1.0000 0.48417  0.00391  0.60883  Biso   1.000  H
  H250     1.0000 0.48564  0.08762  0.61433  Biso   1.000  H
  C504     1.0000 0.51233  0.09491  0.55581  Biso   1.000  C
  H251     1.0000 0.48568  0.08766  0.61433  Biso   1.000  H
  C505     1.0000 0.51238  0.09495  0.55581  Biso   1.000  C
  H252     1.0000 0.44387  0.09240  0.57320  Biso   1.000  H
  H253     1.0000 0.44384  0.09243  0.57320  Biso   1.000  H
  O67      1.0000 0.21384  0.04543  0.47793  Biso   1.000  O
  O68      1.0000 0.21386  0.04541  0.47789  Biso   1.000  O
  H254     1.0000 0.50393  0.91354  0.47972  Biso   1.000  H
  H255     1.0000 0.46892  0.86583  0.42442  Biso   1.000  H
  H256     1.0000 0.50389  0.91354  0.47972  Biso   1.000  H
  H257     1.0000 0.46888  0.86583  0.42442  Biso   1.000  H
  H258     1.0000 0.50390  0.91358  0.47972  Biso   1.000  H
  H259     1.0000 0.46889  0.86586  0.42442  Biso   1.000  H
  H260     1.0000 0.46378  0.92415  0.44243  Biso   1.000  H
  H261     1.0000 0.50394  0.91358  0.47972  Biso   1.000  H
  H262     1.0000 0.46893  0.86586  0.42442  Biso   1.000  H
  B35      1.0000 0.59315  0.07363  0.74295  Biso   1.000  B
  B36      1.0000 0.59319  0.07363  0.74295  Biso   1.000  B
  H263     1.0000 0.64988  0.20236  0.58785  Biso   1.000  H
  H264     1.0000 0.62846  0.22986  0.55443  Biso   1.000  H
  H265     1.0000 0.59066  0.17545  0.55222  Biso   1.000  H
  H266     1.0000 0.62845  0.22982  0.55443  Biso   1.000  H
  H267     1.0000 0.59067  0.17543  0.55226  Biso   1.000  H
  H268     1.0000 0.62850  0.22986  0.55443  Biso   1.000  H
  H269     1.0000 0.32101  0.42187  0.69094  Biso   1.000  H
  H270     1.0000 0.27084  0.43069  0.70357  Biso   1.000  H
  H271     1.0000 0.27079  0.43067  0.70353  Biso   1.000  H
  H272     1.0000 0.32100  0.42184  0.69094  Biso   1.000  H
  H273     1.0000 0.27079  0.43065  0.70357  Biso   1.000  H
  H274     1.0000 0.32097  0.42187  0.69094  Biso   1.000  H
  H275     1.0000 0.28958  0.38607  0.71375  Biso   1.000  H
  H276     1.0000 0.27080  0.43069  0.70357  Biso   1.000  H
  H277     1.0000 0.27082  0.43067  0.70353  Biso   1.000  H
  H278     1.0000 0.27083  0.43065  0.70357  Biso   1.000  H
  B37      1.0000 0.35622  0.31046  0.88396  Biso   1.000  B
  B38      1.0000 0.35619  0.31050  0.88396  Biso   1.000  B
  H279     1.0000 0.37276  0.16733  0.63366  Biso   1.000  H
  H280     1.0000 0.39398  0.23073  0.64784  Biso   1.000  H
  H281     1.0000 0.41029  0.18989  0.60655  Biso   1.000  H
  H282     1.0000 0.39396  0.23077  0.64784  Biso   1.000  H
  H283     1.0000 0.37277  0.16737  0.63366  Biso   1.000  H
  H284     1.0000 0.37280  0.16735  0.63362  Biso   1.000  H
  H285     1.0000 0.37280  0.16733  0.63366  Biso   1.000  H
  C506     1.0000 0.47054  0.91717  0.84365  Biso   1.000  C
  C507     1.0000 0.47055  0.91720  0.84365  Biso   1.000  C
  C508     1.0000 0.47058  0.91720  0.84365  Biso   1.000  C
  H286     1.0000 0.44043  0.83677  0.79024  Biso   1.000  H
  C509     1.0000 0.29143  0.70366  0.76445  Biso   1.000  C
  C510     1.0000 0.25446  0.73801  0.83586  Biso   1.000  C
  C511     1.0000 0.29144  0.70369  0.76445  Biso   1.000  C
  C512     1.0000 0.25441  0.73797  0.83586  Biso   1.000  C
  C513     1.0000 0.29139  0.70366  0.76445  Biso   1.000  C
  C514     1.0000 0.47724  0.95204  0.89434  Biso   1.000  C
  C515     1.0000 0.47726  0.95210  0.89438  Biso   1.000  C
  C516     1.0000 0.47725  0.95208  0.89434  Biso   1.000  C
  H287     1.0000 0.46297  0.95327  0.95967  Biso   1.000  H
  H288     1.0000 0.46295  0.95331  0.95967  Biso   1.000  H
  C517     1.0000 0.25995  0.77518  0.88528  Biso   1.000  C
  C518     1.0000 0.31524  0.85309  0.97307  Biso   1.000  C
  C519     1.0000 0.25996  0.77522  0.88528  Biso   1.000  C
  C520     1.0000 0.25991  0.77516  0.88524  Biso   1.000  C
  C521     1.0000 0.31529  0.85312  0.97307  Biso   1.000  C
  C522     1.0000 0.67781  0.73010  0.42541  Biso   1.000  C
  C523     1.0000 0.67779  0.73014  0.42541  Biso   1.000  C
  C524     1.0000 0.66609  0.81555  0.42270  Biso   1.000  C
  C525     1.0000 0.66612  0.81551  0.42270  Biso   1.000  C
  C526     1.0000 0.67782  0.73014  0.42541  Biso   1.000  C
  C527     1.0000 0.67778  0.73010  0.42541  Biso   1.000  C
  H289     1.0000 0.81161  0.91325  0.39660  Biso   1.000  H
  C528     1.0000 0.88021  0.90036  0.39981  Biso   1.000  C
  H290     1.0000 0.81163  0.91321  0.39660  Biso   1.000  H
  C529     1.0000 0.88024  0.90032  0.39981  Biso   1.000  C
  C530     1.0000 0.69848  0.68871  0.41163  Biso   1.000  C
  C531     1.0000 0.69848  0.68873  0.41159  Biso   1.000  C
  C532     1.0000 0.69849  0.68875  0.41163  Biso   1.000  C
  C533     1.0000 0.69851  0.68869  0.41159  Biso   1.000  C
  C534     1.0000 0.69852  0.68871  0.41163  Biso   1.000  C
  C535     1.0000 0.74870  0.64054  0.36422  Biso   1.000  C
  C536     1.0000 0.69847  0.68869  0.41159  Biso   1.000  C
  C537     1.0000 0.74865  0.64048  0.36418  Biso   1.000  C
  C538     1.0000 0.90170  0.85932  0.38851  Biso   1.000  C
  H291     1.0000 0.88320  0.77634  0.35911  Biso   1.000  H
  H292     1.0000 0.88323  0.77630  0.35911  Biso   1.000  H
  B39      1.0000 0.46873  0.29280  0.02969  Biso   1.000  B
  H293     1.0000 0.66691  0.06229  0.98798  Biso   1.000  H
  H294     1.0000 0.66693  0.06227  0.98794  Biso   1.000  H
  H295     1.0000 0.64511  0.07727  0.03457  Biso   1.000  H
  H296     1.0000 0.64512  0.07731  0.03457  Biso   1.000  H
  H297     1.0000 0.70535  0.08780  0.04460  Biso   1.000  H
  H298     1.0000 0.70486  0.35961  0.21621  Biso   1.000  H
  H299     1.0000 0.70483  0.35961  0.21621  Biso   1.000  H
  H300     1.0000 0.70505  0.37322  0.27302  Biso   1.000  H
  H301     1.0000 0.70507  0.37321  0.27298  Biso   1.000  H
  H302     1.0000 0.65357  0.33181  0.22620  Biso   1.000  H
  H303     1.0000 0.35031  0.79772  0.41221  Biso   1.000  H
  H304     1.0000 0.40952  0.82462  0.44780  Biso   1.000  H
  H305     1.0000 0.40949  0.82465  0.44780  Biso   1.000  H
  H306     1.0000 0.37170  0.77023  0.44563  Biso   1.000  H
  H307     1.0000 0.35027  0.79772  0.41221  Biso   1.000  H
  H308     1.0000 0.37168  0.77021  0.44559  Biso   1.000  H
  H309     1.0000 0.40948  0.82462  0.44780  Biso   1.000  H
  H310     1.0000 0.37173  0.77024  0.44559  Biso   1.000  H
  H311     1.0000 0.40953  0.82465  0.44780  Biso   1.000  H
  B40      1.0000 0.16603  0.00382  0.46251  Biso   1.000  B
  H312     1.0000 0.53637  0.07593  0.55763  Biso   1.000  H
  H313     1.0000 0.49625  0.08652  0.52030  Biso   1.000  H
  H314     1.0000 0.53634  0.07593  0.55763  Biso   1.000  H
  H315     1.0000 0.49630  0.08654  0.52033  Biso   1.000  H
  H316     1.0000 0.53131  0.13426  0.57564  Biso   1.000  H
  H317     1.0000 0.53126  0.13424  0.57560  Biso   1.000  H
  C539     1.0000 0.58502  0.08210  0.79245  Biso   1.000  C
  C540     1.0000 0.58498  0.08210  0.79245  Biso   1.000  C
  C541     1.0000 0.38322  0.33136  0.93926  Biso   1.000  C
  C542     1.0000 0.38319  0.33140  0.93926  Biso   1.000  C
  O69      1.0000 0.49395  0.94478  0.81785  Biso   1.000  O
  O70      1.0000 0.49392  0.94478  0.81785  Biso   1.000  O
  H318     1.0000 0.22112  0.71317  0.81286  Biso   1.000  H
  H319     1.0000 0.25462  0.68998  0.74353  Biso   1.000  H
  H320     1.0000 0.31273  0.72597  0.75174  Biso   1.000  H
  C543     1.0000 0.30874  0.65538  0.76205  Biso   1.000  C
  H321     1.0000 0.25461  0.68994  0.74353  Biso   1.000  H
  C544     1.0000 0.30870  0.65538  0.76205  Biso   1.000  C
  H322     1.0000 0.31269  0.72597  0.75174  Biso   1.000  H
  O71      1.0000 0.50528  0.00365  0.90085  Biso   1.000  O
  O72      1.0000 0.50533  0.00369  0.90085  Biso   1.000  O
  H323     1.0000 0.23021  0.77527  0.89535  Biso   1.000  H
  H324     1.0000 0.23026  0.77530  0.89535  Biso   1.000  H
  H325     1.0000 0.34426  0.85430  0.99848  Biso   1.000  H
  C545     1.0000 0.32568  0.91220  0.97687  Biso   1.000  C
  H326     1.0000 0.34425  0.85428  0.99844  Biso   1.000  H
  C546     1.0000 0.32565  0.91220  0.97687  Biso   1.000  C
  H327     1.0000 0.28314  0.84080  0.98086  Biso   1.000  H
  H328     1.0000 0.28317  0.84077  0.98086  Biso   1.000  H
  H329     1.0000 0.65732  0.73134  0.44702  Biso   1.000  H
  C547     1.0000 0.61790  0.80603  0.37971  Biso   1.000  C
  H330     1.0000 0.69372  0.85064  0.43192  Biso   1.000  H
  H331     1.0000 0.65622  0.81810  0.45322  Biso   1.000  H
  C548     1.0000 0.61793  0.80600  0.37971  Biso   1.000  C
  O73      1.0000 0.91881  0.95185  0.42092  Biso   1.000  O
  O74      1.0000 0.91883  0.95181  0.42092  Biso   1.000  O
  H332     1.0000 0.69189  0.66212  0.42402  Biso   1.000  H
  H333     1.0000 0.69190  0.66215  0.42402  Biso   1.000  H
  H334     1.0000 0.69192  0.66212  0.42402  Biso   1.000  H
  H335     1.0000 0.74739  0.62409  0.38820  Biso   1.000  H
  H336     1.0000 0.78507  0.65431  0.36539  Biso   1.000  H
  H337     1.0000 0.74736  0.62412  0.38820  Biso   1.000  H
  C549     1.0000 0.71368  0.59634  0.30880  Biso   1.000  C
  H338     1.0000 0.78512  0.65433  0.36542  Biso   1.000  H
  C550     1.0000 0.71370  0.59631  0.30880  Biso   1.000  C
  H339     1.0000 0.74740  0.62412  0.38820  Biso   1.000  H
  H340     1.0000 0.74735  0.62409  0.38820  Biso   1.000  H
  O75      1.0000 0.95481  0.88520  0.40311  Biso   1.000  O
  O76      1.0000 0.95478  0.88524  0.40311  Biso   1.000  O
  O77      1.0000 0.95482  0.88524  0.40311  Biso   1.000  O
  O78      1.0000 0.95477  0.88520  0.40311  Biso   1.000  O
  C551     1.0000 0.43503  0.32161  0.00878  Biso   1.000  C
  C552     1.0000 0.11486  0.01694  0.46081  Biso   1.000  C
  C553     1.0000 0.55479  0.03857  0.79977  Biso   1.000  C
  C554     1.0000 0.55478  0.03855  0.79973  Biso   1.000  C
  C555     1.0000 0.60849  0.13527  0.83303  Biso   1.000  C
  C556     1.0000 0.60849  0.13525  0.83307  Biso   1.000  C
  C557     1.0000 0.60854  0.13529  0.83307  Biso   1.000  C
  C558     1.0000 0.41242  0.30406  0.95615  Biso   1.000  C
  C559     1.0000 0.41240  0.30410  0.95615  Biso   1.000  C
  C560     1.0000 0.37674  0.37626  0.97497  Biso   1.000  C
  B41      1.0000 0.51630  0.00135  0.85766  Biso   1.000  B
  H341     1.0000 0.29511  0.62686  0.72704  Biso   1.000  H
  H342     1.0000 0.29533  0.64047  0.78385  Biso   1.000  H
  H343     1.0000 0.34666  0.66828  0.77386  Biso   1.000  H
  H344     1.0000 0.34662  0.66828  0.77386  Biso   1.000  H
  H345     1.0000 0.29529  0.64047  0.78385  Biso   1.000  H
  H346     1.0000 0.29488  0.91228  0.95545  Biso   1.000  H
  H347     1.0000 0.35506  0.92276  0.96544  Biso   1.000  H
  H348     1.0000 0.29485  0.91228  0.95545  Biso   1.000  H
  H349     1.0000 0.35505  0.92281  0.96548  Biso   1.000  H
  H350     1.0000 0.35507  0.92279  0.96544  Biso   1.000  H
  H351     1.0000 0.33328  0.93779  0.01207  Biso   1.000  H
  H352     1.0000 0.58988  0.81023  0.39350  Biso   1.000  H
  H353     1.0000 0.62739  0.83275  0.36639  Biso   1.000  H
  H354     1.0000 0.60616  0.76931  0.35222  Biso   1.000  H
  H355     1.0000 0.62742  0.83271  0.36639  Biso   1.000  H
  H356     1.0000 0.60621  0.76935  0.35222  Biso   1.000  H
  B42      1.0000 0.96741  0.94184  0.42290  Biso   1.000  B
  B43      1.0000 0.96743  0.94180  0.42290  Biso   1.000  B
  H357     1.0000 0.71055  0.61401  0.28630  Biso   1.000  H
  H358     1.0000 0.72937  0.56943  0.29649  Biso   1.000  H
  H359     1.0000 0.67915  0.57821  0.30911  Biso   1.000  H
  H360     1.0000 0.72939  0.56939  0.29649  Biso   1.000  H
  H361     1.0000 0.67920  0.57824  0.30911  Biso   1.000  H
  C561     1.0000 0.42852  0.36647  0.04456  Biso   1.000  C
  C562     1.0000 0.06624  0.97444  0.44373  Biso   1.000  C
  C563     1.0000 0.06620  0.97445  0.44369  Biso   1.000  C
  C564     1.0000 0.06620  0.97444  0.44373  Biso   1.000  C
  C565     1.0000 0.06619  0.97442  0.44369  Biso   1.000  C
  C566     1.0000 0.06624  0.97445  0.44369  Biso   1.000  C
  C567     1.0000 0.11815  0.07165  0.47762  Biso   1.000  C
  C568     1.0000 0.11818  0.07161  0.47762  Biso   1.000  C
  C569     1.0000 0.54809  0.04835  0.84756  Biso   1.000  C
  H362     1.0000 0.53909  0.00295  0.77254  Biso   1.000  H
  H363     1.0000 0.53906  0.00298  0.77254  Biso   1.000  H
  H364     1.0000 0.62872  0.16440  0.82827  Biso   1.000  H
  H365     1.0000 0.62866  0.16435  0.82823  Biso   1.000  H
  C570     1.0000 0.60179  0.14508  0.88098  Biso   1.000  C
  H366     1.0000 0.62867  0.16436  0.82827  Biso   1.000  H
  C571     1.0000 0.60182  0.14506  0.88094  Biso   1.000  C
  H367     1.0000 0.62870  0.16438  0.82823  Biso   1.000  H
  H368     1.0000 0.62869  0.16435  0.82823  Biso   1.000  H
  H369     1.0000 0.62871  0.16436  0.82827  Biso   1.000  H
  H370     1.0000 0.62867  0.16438  0.82823  Biso   1.000  H
  H371     1.0000 0.41672  0.27408  0.93225  Biso   1.000  H
  H372     1.0000 0.41669  0.27408  0.93225  Biso   1.000  H
  H373     1.0000 0.35722  0.39462  0.96366  Biso   1.000  H
  H374     1.0000 0.35725  0.39458  0.96366  Biso   1.000  H
  C572     1.0000 0.39931  0.39381  0.02760  Biso   1.000  C
  C573     1.0000 0.39933  0.39379  0.02756  Biso   1.000  C
  C574     1.0000 0.02080  0.98661  0.44342  Biso   1.000  C
  C575     1.0000 0.02084  0.98665  0.44342  Biso   1.000  C
  H375     1.0000 0.44375  0.37820  0.07988  Biso   1.000  H
  H376     1.0000 0.44372  0.37820  0.07988  Biso   1.000  H
  H377     1.0000 0.06399  0.93783  0.43250  Biso   1.000  H
  C576     1.0000 0.07278  0.08383  0.47731  Biso   1.000  C
  H378     1.0000 0.15076  0.10000  0.48912  Biso   1.000  H
  H379     1.0000 0.15073  0.10004  0.48912  Biso   1.000  H
  C577     1.0000 0.57161  0.10156  0.88814  Biso   1.000  C
  C578     1.0000 0.57158  0.10160  0.88814  Biso   1.000  C
  B44      1.0000 0.62652  0.20600  0.92737  Biso   1.000  B
  B45      1.0000 0.62650  0.20598  0.92734  Biso   1.000  B
  B46      1.0000 0.62651  0.20596  0.92737  Biso   1.000  B
  B47      1.0000 0.62655  0.20600  0.92737  Biso   1.000  B
  B48      1.0000 0.39281  0.44348  0.06819  Biso   1.000  B
  B49      1.0000 0.39285  0.44351  0.06819  Biso   1.000  B
  C579     1.0000 0.02404  0.04130  0.46019  Biso   1.000  C
  C580     1.0000 0.02406  0.04136  0.46023  Biso   1.000  C
  B50      1.0000 0.08012  0.14671  0.49690  Biso   1.000  B
  B51      1.0000 0.08017  0.14674  0.49690  Biso   1.000  B
  H380     1.0000 0.56713  0.10818  0.92017  Biso   1.000  H
  O79      1.0000 0.62364  0.21530  0.97408  Biso   1.000  O
  O80      1.0000 0.66060  0.24876  0.92246  Biso   1.000  O
  O81      1.0000 0.62362  0.21528  0.97404  Biso   1.000  O
  O82      1.0000 0.66064  0.24880  0.92246  Biso   1.000  O
  O83      1.0000 0.62363  0.21526  0.97408  Biso   1.000  O
  O84      1.0000 0.41113  0.45969  0.12028  Biso   1.000  O
  O85      1.0000 0.36072  0.47218  0.05467  Biso   1.000  O
  O86      1.0000 0.36077  0.47220  0.05471  Biso   1.000  O
  O87      1.0000 0.41117  0.45969  0.12028  Biso   1.000  O
  H381     1.0000 0.99369  0.04942  0.46011  Biso   1.000  H
  O88      1.0000 0.03437  0.16192  0.49381  Biso   1.000  O
  O89      1.0000 0.12476  0.18754  0.50581  Biso   1.000  O
  O90      1.0000 0.03433  0.16192  0.49381  Biso   1.000  O
  O91      1.0000 0.12475  0.18750  0.50581  Biso   1.000  O
  O92      1.0000 0.12480  0.18754  0.50581  Biso   1.000  O
  C581     1.0000 0.65509  0.27169  0.00409  Biso   1.000  C
  C582     1.0000 0.67634  0.28970  0.97149  Biso   1.000  C
  C583     1.0000 0.67633  0.28968  0.97145  Biso   1.000  C
  C584     1.0000 0.67633  0.28966  0.97149  Biso   1.000  C
  C585     1.0000 0.36225  0.50648  0.10289  Biso   1.000  C
  C586     1.0000 0.36222  0.50648  0.10289  Biso   1.000  C
  C587     1.0000 0.36223  0.50652  0.10289  Biso   1.000  C
  C588     1.0000 0.36226  0.50652  0.10289  Biso   1.000  C
  C589     1.0000 0.39234  0.49989  0.14239  Biso   1.000  C
  C590     1.0000 0.39235  0.49993  0.14239  Biso   1.000  C
  C591     1.0000 0.39237  0.49989  0.14239  Biso   1.000  C
  C592     1.0000 0.05755  0.21790  0.50961  Biso   1.000  C
  C593     1.0000 0.05759  0.21793  0.50961  Biso   1.000  C
  C594     1.0000 0.11144  0.23474  0.51724  Biso   1.000  C
  C595     1.0000 0.11147  0.23472  0.51720  Biso   1.000  C
  C596     1.0000 0.66945  0.30801  0.05618  Biso   1.000  C
  C597     1.0000 0.66940  0.30797  0.05618  Biso   1.000  C
  C598     1.0000 0.71180  0.34379  0.99077  Biso   1.000  C
  C599     1.0000 0.33724  0.54442  0.11458  Biso   1.000  C
  C600     1.0000 0.33727  0.54439  0.11458  Biso   1.000  C
  C601     1.0000 0.39737  0.53121  0.19359  Biso   1.000  C
  C602     1.0000 0.39733  0.53121  0.19359  Biso   1.000  C
  C603     1.0000 0.03274  0.25590  0.51491  Biso   1.000  C
  C604     1.0000 0.03275  0.25594  0.51491  Biso   1.000  C
  C605     1.0000 0.14055  0.28963  0.53021  Biso   1.000  C
  H382     1.0000 0.65532  0.29598  0.07810  Biso   1.000  H
  H383     1.0000 0.65536  0.29598  0.07810  Biso   1.000  H
  H384     1.0000 0.65537  0.29602  0.07810  Biso   1.000  H
  C606     1.0000 0.70496  0.36212  0.07551  Biso   1.000  C
  C607     1.0000 0.70494  0.36210  0.07547  Biso   1.000  C
  C608     1.0000 0.70490  0.36206  0.07547  Biso   1.000  C
  H385     1.0000 0.65533  0.29602  0.07810  Biso   1.000  H
  H386     1.0000 0.72592  0.35578  0.96885  Biso   1.000  H
  H387     1.0000 0.72595  0.35578  0.96885  Biso   1.000  H
  C609     1.0000 0.72603  0.38000  0.04278  Biso   1.000  C
  C610     1.0000 0.72602  0.37997  0.04278  Biso   1.000  C
  C611     1.0000 0.34237  0.57570  0.16578  Biso   1.000  C
  H388     1.0000 0.31712  0.54877  0.08817  Biso   1.000  H
  C612     1.0000 0.34233  0.57570  0.16578  Biso   1.000  C
  H389     1.0000 0.31713  0.54881  0.08817  Biso   1.000  H
  H390     1.0000 0.31718  0.54882  0.08821  Biso   1.000  H
  H391     1.0000 0.41745  0.52672  0.22000  Biso   1.000  H
  C613     1.0000 0.37234  0.56908  0.20528  Biso   1.000  C
  H392     1.0000 0.41748  0.52672  0.22000  Biso   1.000  H
  C614     1.0000 0.37238  0.56911  0.20528  Biso   1.000  C
  C615     1.0000 0.06177  0.31086  0.52793  Biso   1.000  C
  C616     1.0000 0.06179  0.31082  0.52793  Biso   1.000  C
  H393     1.0000 0.99668  0.24461  0.50980  Biso   1.000  H
  C617     1.0000 0.11564  0.32760  0.53559  Biso   1.000  C
  C618     1.0000 0.11565  0.32764  0.53559  Biso   1.000  C
  H394     1.0000 0.17654  0.30092  0.53532  Biso   1.000  H
  H395     1.0000 0.17659  0.30096  0.53532  Biso   1.000  H
  C619     1.0000 0.72132  0.40132  0.13170  Biso   1.000  C
  C620     1.0000 0.72135  0.40128  0.13170  Biso   1.000  C
  C621     1.0000 0.72136  0.40132  0.13170  Biso   1.000  C
  C622     1.0000 0.72131  0.40128  0.13170  Biso   1.000  C
  C623     1.0000 0.76344  0.43991  0.07040  Biso   1.000  C
  C624     1.0000 0.76347  0.43991  0.07040  Biso   1.000  C
  C625     1.0000 0.31386  0.62049  0.18460  Biso   1.000  C
  C626     1.0000 0.31383  0.62053  0.18460  Biso   1.000  C
  C627     1.0000 0.37124  0.60162  0.25749  Biso   1.000  C
  C628     1.0000 0.37127  0.60158  0.25749  Biso   1.000  C
  C629     1.0000 0.03581  0.35434  0.52603  Biso   1.000  C
  C630     1.0000 0.14137  0.38730  0.54551  Biso   1.000  C
  C631     1.0000 0.14141  0.38734  0.54551  Biso   1.000  C
  C632     1.0000 0.78027  0.41841  0.14599  Biso   1.000  C
  C633     1.0000 0.71356  0.45371  0.13201  Biso   1.000  C
  H396     1.0000 0.70516  0.38641  0.15289  Biso   1.000  H
  C634     1.0000 0.71351  0.45369  0.13197  Biso   1.000  C
  H397     1.0000 0.70511  0.38638  0.15289  Biso   1.000  H
  H398     1.0000 0.77941  0.45461  0.04910  Biso   1.000  H
  C635     1.0000 0.80194  0.43829  0.11458  Biso   1.000  C
  C636     1.0000 0.73606  0.47300  0.10068  Biso   1.000  C
  H399     1.0000 0.77945  0.45461  0.04910  Biso   1.000  H
  C637     1.0000 0.35807  0.66981  0.22829  Biso   1.000  C
  C638     1.0000 0.35804  0.66981  0.22829  Biso   1.000  C
  H400     1.0000 0.29293  0.62677  0.15788  Biso   1.000  H
  C639     1.0000 0.28425  0.59353  0.21319  Biso   1.000  C
  H401     1.0000 0.29297  0.62681  0.15788  Biso   1.000  H
  C640     1.0000 0.28427  0.59349  0.21319  Biso   1.000  C
  C641     1.0000 0.38797  0.66249  0.26729  Biso   1.000  C
  H402     1.0000 0.39217  0.59591  0.28472  Biso   1.000  H
  C642     1.0000 0.31295  0.58690  0.25338  Biso   1.000  C
  C643     1.0000 0.38793  0.66249  0.26729  Biso   1.000  C
  H403     1.0000 0.39213  0.59589  0.28468  Biso   1.000  H
  C644     1.0000 0.38794  0.66253  0.26729  Biso   1.000  C
  H404     1.0000 0.39215  0.59595  0.28472  Biso   1.000  H
  H405     1.0000 0.39216  0.59589  0.28468  Biso   1.000  H
  C645     1.0000 0.38798  0.66253  0.26729  Biso   1.000  C
  H406     1.0000 0.39218  0.59595  0.28472  Biso   1.000  H
  C646     1.0000 0.06254  0.37752  0.49330  Biso   1.000  C
  H407     1.0000 0.99726  0.34232  0.51662  Biso   1.000  H
  H408     1.0000 0.99729  0.34232  0.51662  Biso   1.000  H
  H409     1.0000 0.99730  0.34236  0.51662  Biso   1.000  H
  H410     1.0000 0.99727  0.34236  0.51662  Biso   1.000  H
  C647     1.0000 0.06918  0.39856  0.58071  Biso   1.000  C
  C648     1.0000 0.06920  0.39852  0.58071  Biso   1.000  C
  C649     1.0000 0.11646  0.39614  0.50101  Biso   1.000  C
  C650     1.0000 0.12309  0.41744  0.58873  Biso   1.000  C
  H411     1.0000 0.17996  0.39994  0.55503  Biso   1.000  H
  H412     1.0000 0.17998  0.39992  0.55500  Biso   1.000  H
  C651     1.0000 0.12312  0.41744  0.58873  Biso   1.000  C
  C652     1.0000 0.68555  0.48101  0.15920  Biso   1.000  C
  C653     1.0000 0.81257  0.41340  0.18530  Biso   1.000  C
  C654     1.0000 0.73048  0.51950  0.09650  Biso   1.000  C
  C655     1.0000 0.85596  0.45338  0.12268  Biso   1.000  C
  C656     1.0000 0.85594  0.45342  0.12268  Biso   1.000  C
  C657     1.0000 0.36836  0.72268  0.23119  Biso   1.000  C
  C658     1.0000 0.22966  0.57678  0.20017  Biso   1.000  C
  C659     1.0000 0.22968  0.57684  0.20021  Biso   1.000  C
  C660     1.0000 0.42806  0.70799  0.30919  Biso   1.000  C
  C661     1.0000 0.42810  0.70802  0.30919  Biso   1.000  C
  C662     1.0000 0.28717  0.56341  0.28049  Biso   1.000  C
  C663     1.0000 0.28713  0.56341  0.28049  Biso   1.000  C
  C664     1.0000 0.02787  0.37993  0.45372  Biso   1.000  C
  C665     1.0000 0.04916  0.42651  0.61750  Biso   1.000  C
  C666     1.0000 0.04922  0.42656  0.61754  Biso   1.000  C
  C667     1.0000 0.04917  0.42655  0.61750  Biso   1.000  C
  C668     1.0000 0.13564  0.41711  0.46921  Biso   1.000  C
  C669     1.0000 0.13565  0.41715  0.46921  Biso   1.000  C
  C670     1.0000 0.15707  0.46441  0.63350  Biso   1.000  C
  C671     1.0000 0.15708  0.46444  0.63350  Biso   1.000  C
  C672     1.0000 0.15713  0.46446  0.63354  Biso   1.000  C
  C673     1.0000 0.68004  0.52751  0.15502  Biso   1.000  C
  C674     1.0000 0.66273  0.46029  0.19340  Biso   1.000  C
  C675     1.0000 0.68006  0.52750  0.15498  Biso   1.000  C
  C676     1.0000 0.66276  0.46029  0.19340  Biso   1.000  C
  C677     1.0000 0.68007  0.52751  0.15502  Biso   1.000  C
  C678     1.0000 0.66277  0.46033  0.19340  Biso   1.000  C
  C679     1.0000 0.68003  0.52750  0.15498  Biso   1.000  C
  C680     1.0000 0.66274  0.46033  0.19340  Biso   1.000  C
  C681     1.0000 0.86645  0.42849  0.19340  Biso   1.000  C
  H413     1.0000 0.79805  0.40008  0.20629  Biso   1.000  H
  C682     1.0000 0.86646  0.42852  0.19340  Biso   1.000  C
  C683     1.0000 0.86642  0.42849  0.19340  Biso   1.000  C
  C684     1.0000 0.70243  0.54669  0.12369  Biso   1.000  C
  C685     1.0000 0.70247  0.54669  0.12369  Biso   1.000  C
  C686     1.0000 0.74743  0.53657  0.05796  Biso   1.000  C
  C687     1.0000 0.74744  0.53660  0.05796  Biso   1.000  C
  C688     1.0000 0.88814  0.44850  0.16210  Biso   1.000  C
  H414     1.0000 0.87043  0.46679  0.10180  Biso   1.000  H
  H415     1.0000 0.87046  0.46679  0.10180  Biso   1.000  H
  C689     1.0000 0.88818  0.44850  0.16210  Biso   1.000  C
  H416     1.0000 0.87047  0.46683  0.10180  Biso   1.000  H
  H417     1.0000 0.87044  0.46683  0.10180  Biso   1.000  H
  C690     1.0000 0.34236  0.73081  0.18739  Biso   1.000  C
  C691     1.0000 0.40850  0.76821  0.27310  Biso   1.000  C
  H418     1.0000 0.21046  0.58132  0.17330  Biso   1.000  H
  H419     1.0000 0.21042  0.58128  0.17330  Biso   1.000  H
  C692     1.0000 0.20372  0.55341  0.22728  Biso   1.000  C
  H420     1.0000 0.21043  0.58132  0.17330  Biso   1.000  H
  C693     1.0000 0.20376  0.55341  0.22728  Biso   1.000  C
  H421     1.0000 0.21045  0.58128  0.17330  Biso   1.000  H
  C694     1.0000 0.43827  0.76083  0.31210  Biso   1.000  C
  C695     1.0000 0.46290  0.70151  0.35082  Biso   1.000  C
  C696     1.0000 0.43826  0.76079  0.31210  Biso   1.000  C
  C697     1.0000 0.46285  0.70149  0.35078  Biso   1.000  C
  C698     1.0000 0.46287  0.70155  0.35082  Biso   1.000  C
  C699     1.0000 0.43830  0.76083  0.31210  Biso   1.000  C
  C700     1.0000 0.46290  0.70153  0.35078  Biso   1.000  C
  C701     1.0000 0.46291  0.70155  0.35082  Biso   1.000  C
  C702     1.0000 0.46286  0.70153  0.35078  Biso   1.000  C
  H422     1.0000 0.30635  0.55903  0.30729  Biso   1.000  H
  C703     1.0000 0.23243  0.54670  0.26740  Biso   1.000  C
  H423     1.0000 0.30634  0.55899  0.30729  Biso   1.000  H
  H424     1.0000 0.30639  0.55903  0.30729  Biso   1.000  H
  C704     1.0000 0.23247  0.54674  0.26740  Biso   1.000  C
  C705     1.0000 0.04716  0.40081  0.42189  Biso   1.000  C
  H425     1.0000 0.99175  0.36740  0.44849  Biso   1.000  H
  H426     1.0000 0.99180  0.36742  0.44853  Biso   1.000  H
  H427     1.0000 0.99177  0.36746  0.44853  Biso   1.000  H
  C706     1.0000 0.99196  0.40264  0.61200  Biso   1.000  C
  C707     1.0000 0.08328  0.47353  0.66231  Biso   1.000  C
  C708     1.0000 0.08329  0.47356  0.66231  Biso   1.000  C
  C709     1.0000 0.08331  0.47353  0.66231  Biso   1.000  C
  C710     1.0000 0.10107  0.41951  0.42960  Biso   1.000  C
  C711     1.0000 0.10103  0.41951  0.42960  Biso   1.000  C
  H428     1.0000 0.17175  0.42962  0.47440  Biso   1.000  H
  C712     1.0000 0.21519  0.48906  0.64434  Biso   1.000  C
  C713     1.0000 0.21517  0.48900  0.64430  Biso   1.000  C
  C714     1.0000 0.21521  0.48904  0.64430  Biso   1.000  C
  C715     1.0000 0.13723  0.49245  0.67033  Biso   1.000  C
  C716     1.0000 0.21523  0.48906  0.64434  Biso   1.000  C
  C717     1.0000 0.21518  0.48904  0.64430  Biso   1.000  C
  H429     1.0000 0.66124  0.54572  0.17322  Biso   1.000  H
  H430     1.0000 0.66126  0.54570  0.17318  Biso   1.000  H
  H431     1.0000 0.66127  0.54572  0.17322  Biso   1.000  H
  H432     1.0000 0.66122  0.54570  0.17318  Biso   1.000  H
  H433     1.0000 0.68564  0.44500  0.20811  Biso   1.000  H
  H434     1.0000 0.66134  0.49122  0.22178  Biso   1.000  H
  C718     1.0000 0.60672  0.41541  0.16369  Biso   1.000  C
  H435     1.0000 0.68566  0.44498  0.20807  Biso   1.000  H
  H436     1.0000 0.66136  0.49118  0.22178  Biso   1.000  H
  C719     1.0000 0.60676  0.41541  0.16369  Biso   1.000  C
  H437     1.0000 0.68569  0.44504  0.20811  Biso   1.000  H
  H438     1.0000 0.66137  0.49122  0.22178  Biso   1.000  H
  H439     1.0000 0.68563  0.44498  0.20807  Biso   1.000  H
  H440     1.0000 0.66133  0.49118  0.22178  Biso   1.000  H
  H441     1.0000 0.68565  0.44504  0.20811  Biso   1.000  H
  O93      1.0000 0.90595  0.42752  0.23030  Biso   1.000  O
  O94      1.0000 0.90599  0.42752  0.23030  Biso   1.000  O
  H442     1.0000 0.69877  0.57780  0.12090  Biso   1.000  H
  H443     1.0000 0.72715  0.55690  0.04840  Biso   1.000  H
  C720     1.0000 0.80564  0.57330  0.08360  Biso   1.000  C
  H444     1.0000 0.74236  0.50419  0.02698  Biso   1.000  H
  O95      1.0000 0.94366  0.46430  0.18011  Biso   1.000  O
  O96      1.0000 0.94362  0.46429  0.18007  Biso   1.000  O
  H445     1.0000 0.41527  0.80352  0.27499  Biso   1.000  H
  H446     1.0000 0.41530  0.80352  0.27499  Biso   1.000  H
  H447     1.0000 0.33874  0.70101  0.15509  Biso   1.000  H
  H448     1.0000 0.36407  0.76552  0.18921  Biso   1.000  H
  C721     1.0000 0.28837  0.73190  0.18821  Biso   1.000  C
  H449     1.0000 0.36406  0.76550  0.18917  Biso   1.000  H
  C722     1.0000 0.28833  0.73190  0.18821  Biso   1.000  C
  C723     1.0000 0.28834  0.73194  0.18821  Biso   1.000  C
  H450     1.0000 0.33878  0.70101  0.15509  Biso   1.000  H
  C724     1.0000 0.28838  0.73194  0.18821  Biso   1.000  C
  O97      1.0000 0.15194  0.53282  0.22391  Biso   1.000  O
  O98      1.0000 0.15193  0.53280  0.22387  Biso   1.000  O
  O99      1.0000 0.15196  0.53280  0.22387  Biso   1.000  O
  O100     1.0000 0.15198  0.53282  0.22391  Biso   1.000  O
  H451     1.0000 0.46506  0.79133  0.34021  Biso   1.000  H
  H452     1.0000 0.47176  0.66922  0.33541  Biso   1.000  H
  H453     1.0000 0.49538  0.73392  0.36899  Biso   1.000  H
  C725     1.0000 0.43345  0.69472  0.38951  Biso   1.000  C
  H454     1.0000 0.47180  0.66922  0.33541  Biso   1.000  H
  H455     1.0000 0.49542  0.73394  0.36903  Biso   1.000  H
  O101     1.0000 0.20125  0.52222  0.28990  Biso   1.000  O
  O102     1.0000 0.20128  0.52222  0.28990  Biso   1.000  O
  O103     1.0000 0.02615  0.40790  0.38022  Biso   1.000  O
  O104     1.0000 0.02620  0.40794  0.38022  Biso   1.000  O
  H456     1.0000 0.98759  0.41333  0.64593  Biso   1.000  H
  C726     1.0000 0.96120  0.42584  0.58052  Biso   1.000  C
  H457     1.0000 0.97878  0.36241  0.59400  Biso   1.000  H
  H458     1.0000 0.98760  0.41336  0.64593  Biso   1.000  H
  H459     1.0000 0.97879  0.36244  0.59400  Biso   1.000  H
  H460     1.0000 0.06992  0.49224  0.68702  Biso   1.000  H
  O105     1.0000 0.11558  0.43584  0.39462  Biso   1.000  O
  O106     1.0000 0.11556  0.43579  0.39459  Biso   1.000  O
  O107     1.0000 0.11553  0.43583  0.39459  Biso   1.000  O
  H461     1.0000 0.15998  0.52396  0.70034  Biso   1.000  H
  H462     1.0000 0.16000  0.52394  0.70030  Biso   1.000  H
  H463     1.0000 0.22498  0.52592  0.64612  Biso   1.000  H
  H464     1.0000 0.22557  0.46615  0.61723  Biso   1.000  H
  C727     1.0000 0.24191  0.49207  0.69624  Biso   1.000  C
  H465     1.0000 0.22502  0.52595  0.64612  Biso   1.000  H
  H466     1.0000 0.59504  0.40001  0.18580  Biso   1.000  H
  H467     1.0000 0.60742  0.38652  0.13372  Biso   1.000  H
  H468     1.0000 0.58297  0.43169  0.15320  Biso   1.000  H
  H469     1.0000 0.60745  0.38650  0.13368  Biso   1.000  H
  H470     1.0000 0.60746  0.38652  0.13372  Biso   1.000  H
  H471     1.0000 0.60741  0.38650  0.13368  Biso   1.000  H
  H472     1.0000 0.58294  0.43173  0.15320  Biso   1.000  H
  B52      1.0000 0.94977  0.45141  0.22109  Biso   1.000  B
  B53      1.0000 0.94973  0.45137  0.22109  Biso   1.000  B
  H473     1.0000 0.80914  0.61088  0.10308  Biso   1.000  H
  H474     1.0000 0.82234  0.56068  0.10637  Biso   1.000  H
  H475     1.0000 0.82236  0.56073  0.10641  Biso   1.000  H
  H476     1.0000 0.82215  0.57142  0.05750  Biso   1.000  H
  H477     1.0000 0.80915  0.61091  0.10308  Biso   1.000  H
  H478     1.0000 0.26508  0.71662  0.15331  Biso   1.000  H
  H479     1.0000 0.29129  0.76952  0.20691  Biso   1.000  H
  H480     1.0000 0.27436  0.71021  0.20490  Biso   1.000  H
  H481     1.0000 0.26503  0.71660  0.15327  Biso   1.000  H
  H482     1.0000 0.29124  0.76950  0.20687  Biso   1.000  H
  H483     1.0000 0.26504  0.71662  0.15331  Biso   1.000  H
  H484     1.0000 0.29125  0.76952  0.20691  Biso   1.000  H
  H485     1.0000 0.26507  0.71660  0.15327  Biso   1.000  H
  H486     1.0000 0.29128  0.76950  0.20687  Biso   1.000  H
  B54      1.0000 0.15075  0.51469  0.26210  Biso   1.000  B
  B55      1.0000 0.15073  0.51473  0.26210  Biso   1.000  B
  H487     1.0000 0.40396  0.66002  0.37239  Biso   1.000  H
  H488     1.0000 0.45730  0.69543  0.41840  Biso   1.000  H
  H489     1.0000 0.45727  0.69543  0.41840  Biso   1.000  H
  H490     1.0000 0.42109  0.72466  0.40152  Biso   1.000  H
  H491     1.0000 0.40400  0.66002  0.37239  Biso   1.000  H
  H492     1.0000 0.42112  0.72462  0.40152  Biso   1.000  H
  B56      1.0000 0.06713  0.43321  0.36519  Biso   1.000  B
  H493     1.0000 0.93137  0.39573  0.55260  Biso   1.000  H
  H494     1.0000 0.98410  0.44462  0.56673  Biso   1.000  H
  H495     1.0000 0.94911  0.45146  0.60282  Biso   1.000  H
  H496     1.0000 0.93142  0.39575  0.55263  Biso   1.000  H
  H497     1.0000 0.98408  0.44466  0.56673  Biso   1.000  H
  H498     1.0000 0.22846  0.51132  0.72191  Biso   1.000  H
  H499     1.0000 0.27933  0.51066  0.70654  Biso   1.000  H
  H500     1.0000 0.23463  0.45465  0.69302  Biso   1.000  H
  H501     1.0000 0.22847  0.51136  0.72191  Biso   1.000  H
  C728     1.0000 0.00632  0.45511  0.25369  Biso   1.000  C
  C729     1.0000 0.10063  0.48878  0.27248  Biso   1.000  C
  C730     1.0000 0.10069  0.48883  0.27252  Biso   1.000  C
  C731     1.0000 0.10064  0.48882  0.27248  Biso   1.000  C
  C732     1.0000 0.06255  0.44940  0.32371  Biso   1.000  C
  C733     1.0000 0.06260  0.44944  0.32371  Biso   1.000  C
  C734     1.0000 0.05053  0.47940  0.24289  Biso   1.000  C
  C735     1.0000 0.01243  0.44008  0.29409  Biso   1.000  C
  C736     1.0000 0.01247  0.44012  0.29409  Biso   1.000  C
  C737     1.0000 0.05057  0.47940  0.24289  Biso   1.000  C
  C738     1.0000 0.10676  0.47384  0.31291  Biso   1.000  C
  C739     1.0000 0.10679  0.47381  0.31291  Biso   1.000  C
  H502     1.0000 0.98288  0.42380  0.30129  Biso   1.000  H
  H503     1.0000 0.98286  0.42383  0.30129  Biso   1.000  H
  H504     1.0000 0.04651  0.48939  0.21590  Biso   1.000  H
  H505     1.0000 0.04656  0.48943  0.21590  Biso   1.000  H
  H506     1.0000 0.14026  0.48002  0.33270  Biso   1.000  H
  H507     1.0000 0.14025  0.47999  0.33270  Biso   1.000  H
  Ne1      1.0000 0.98653  0.98964  0.99442  Biso   1.000  Ne
  He1      1.0000 0.35845  0.28301  0.34162  Biso   1.000  He
  He2      1.0000 0.72108  0.10648  0.23277  Biso   1.000  He
  He3      1.0000 0.01376  0.68454  0.12588  Biso   1.000  He
  He4      1.0000 0.98548  0.35975  0.86024  Biso   1.000  He
  He5      1.0000 0.28844  0.89561  0.74896  Biso   1.000  He
  He6      1.0000 0.64285  0.71811  0.65959  Biso   1.000  He
  Ar1      1.0000 0.98718  0.99506  0.99903  Biso   1.000  Ar
