data_image0
_cell_length_a       17.685
_cell_length_b       21.47
_cell_length_c       20.686
_cell_angle_alpha    90
_cell_angle_beta     99.42
_cell_angle_gamma    90

_symmetry_space_group_name_H-M    "P 1"
_symmetry_int_tables_number       1

loop_
  _symmetry_equiv_pos_as_xyz
  'x, y, z'

loop_
  _atom_site_label
  _atom_site_occupancy
  _atom_site_fract_x
  _atom_site_fract_y
  _atom_site_fract_z
  _atom_site_thermal_displace_type
  _atom_site_B_iso_or_equiv
  _atom_site_type_symbol
  C1       1.0000 0.74758  0.57150  0.73220  Biso   1.000  C
  C2       1.0000 0.74189  0.61630  0.68207  Biso   1.000  C
  H1       1.0000 0.70305  0.55380  0.74239  Biso   1.000  H
  C3       1.0000 0.81876  0.55268  0.76728  Biso   1.000  C
  C4       1.0000 0.80895  0.64280  0.66791  Biso   1.000  C
  H2       1.0000 0.69438  0.62781  0.65899  Biso   1.000  H
  C5       1.0000 0.88339  0.57932  0.75131  Biso   1.000  C
  H3       1.0000 0.82165  0.52310  0.80041  Biso   1.000  H
  C6       1.0000 0.80797  0.69162  0.61141  Biso   1.000  C
  C7       1.0000 0.87900  0.62389  0.70417  Biso   1.000  C
  H4       1.0000 0.93117  0.56660  0.77287  Biso   1.000  H
  C8       1.0000 0.72518  0.71099  0.58210  Biso   1.000  C
  C9       1.0000 0.85770  0.74662  0.64017  Biso   1.000  C
  C10      1.0000 0.84466  0.66288  0.55848  Biso   1.000  C
  H5       1.0000 0.92397  0.64248  0.69598  Biso   1.000  H
  C11      1.0000 0.67866  0.66949  0.54349  Biso   1.000  C
  C12      1.0000 0.69786  0.77028  0.59151  Biso   1.000  C
  C13      1.0000 0.85768  0.77508  0.69971  Biso   1.000  C
  S1       1.0000 0.91883  0.78449  0.59651  Biso   1.000  S
  C14      1.0000 0.89171  0.61011  0.55760  Biso   1.000  C
  N1       1.0000 0.83327  0.68728  0.49689  Biso   1.000  N
  C15      1.0000 0.60516  0.68491  0.51639  Biso   1.000  C
  H6       1.0000 0.69750  0.63032  0.53560  Biso   1.000  H
  C16      1.0000 0.62166  0.78598  0.56240  Biso   1.000  C
  H7       1.0000 0.72886  0.79939  0.61640  Biso   1.000  H
  H8       1.0000 0.82889  0.76148  0.73068  Biso   1.000  H
  C17      1.0000 0.90678  0.82781  0.70838  Biso   1.000  C
  C18      1.0000 0.94447  0.83959  0.65629  Biso   1.000  C
  C19      1.0000 0.90918  0.60279  0.49527  Biso   1.000  C
  H9       1.0000 0.90819  0.58421  0.59318  Biso   1.000  H
  C20      1.0000 0.87225  0.65282  0.45538  Biso   1.000  C
  H10      1.0000 0.80590  0.71970  0.48508  Biso   1.000  H
  H11      1.0000 0.57426  0.65561  0.49169  Biso   1.000  H
  C21      1.0000 0.57647  0.74420  0.52570  Biso   1.000  C
  H12      1.0000 0.60279  0.82562  0.56868  Biso   1.000  H
  H13      1.0000 0.91296  0.85231  0.74597  Biso   1.000  H
  C22      1.0000 0.00090  0.89259  0.65301  Biso   1.000  C
  H14      1.0000 0.93919  0.57150  0.48160  Biso   1.000  H
  C23      1.0000 0.86356  0.66018  0.38898  Biso   1.000  C
  H15      1.0000 0.52667  0.75468  0.50688  Biso   1.000  H
  C24      1.0000 0.95386  0.95510  0.63620  Biso   1.000  C
  C25      1.0000 0.04687  0.88239  0.59690  Biso   1.000  C
  C26      1.0000 0.05576  0.89362  0.71867  Biso   1.000  C
  C27      1.0000 0.79839  0.69930  0.35400  Biso   1.000  C
  C28      1.0000 0.90716  0.63130  0.34620  Biso   1.000  C
  C29      1.0000 0.87686  0.95929  0.62361  Biso   1.000  C
  C30      1.0000 0.99609  0.00992  0.63321  Biso   1.000  C
  C31      1.0000 0.12651  0.87061  0.59911  Biso   1.000  C
  N2       1.0000 0.01667  0.88668  0.53398  Biso   1.000  N
  C32      1.0000 0.09800  0.84280  0.73519  Biso   1.000  C
  C33      1.0000 0.05985  0.94238  0.76307  Biso   1.000  C
  C34      1.0000 0.72419  0.69120  0.36399  Biso   1.000  C
  C35      1.0000 0.81218  0.74709  0.31200  Biso   1.000  C
  C36      1.0000 0.88400  0.61309  0.28162  Biso   1.000  C
  N3       1.0000 0.98176  0.60950  0.36487  Biso   1.000  N
  H16      1.0000 0.84826  0.92329  0.62630  Biso   1.000  H
  C37      1.0000 0.83915  0.01332  0.60739  Biso   1.000  C
  C38      1.0000 0.95857  0.06549  0.62008  Biso   1.000  C
  H17      1.0000 0.04926  0.00862  0.64007  Biso   1.000  H
  C39      1.0000 0.14037  0.86619  0.53800  Biso   1.000  C
  H18      1.0000 0.16270  0.86660  0.63689  Biso   1.000  H
  H19      1.0000 0.96908  0.89418  0.51958  Biso   1.000  H
  C40      1.0000 0.07258  0.87760  0.49400  Biso   1.000  C
  H20      1.0000 0.09096  0.80778  0.70848  Biso   1.000  H
  C41      1.0000 0.15249  0.84178  0.79208  Biso   1.000  C
  H21      1.0000 0.02780  0.97662  0.75337  Biso   1.000  H
  C42      1.0000 0.11009  0.94131  0.82109  Biso   1.000  C
  C43      1.0000 0.66590  0.72962  0.33420  Biso   1.000  C
  F1       1.0000 0.70599  0.64220  0.39947  Biso   1.000  F
  C44      1.0000 0.75438  0.78542  0.28211  Biso   1.000  C
  F2       1.0000 0.88267  0.75822  0.30039  Biso   1.000  F
  H22      1.0000 0.83638  0.62129  0.25648  Biso   1.000  H
  C45      1.0000 0.94370  0.58072  0.26030  Biso   1.000  C
  C46      1.0000 0.00462  0.57909  0.31269  Biso   1.000  C
  H23      1.0000 0.00928  0.61421  0.40290  Biso   1.000  H
  H24      1.0000 0.78590  0.01379  0.59891  Biso   1.000  H
  C47      1.0000 0.87849  0.06628  0.60347  Biso   1.000  C
  H25      1.0000 0.98606  0.10261  0.62219  Biso   1.000  H
  H26      1.0000 0.18770  0.85701  0.52619  Biso   1.000  H
  C48      1.0000 0.06230  0.88798  0.42789  Biso   1.000  C
  H27      1.0000 0.18497  0.80769  0.80080  Biso   1.000  H
  C49      1.0000 0.15850  0.89138  0.83589  Biso   1.000  C
  H28      1.0000 0.11146  0.97420  0.85039  Biso   1.000  H
  C50      1.0000 0.68237  0.77629  0.29441  Biso   1.000  C
  F3       1.0000 0.59421  0.72021  0.34429  Biso   1.000  F
  F4       1.0000 0.76921  0.83158  0.24291  Biso   1.000  F
  H29      1.0000 0.94310  0.56330  0.21909  Biso   1.000  H
  C51      1.0000 0.08347  0.55109  0.31817  Biso   1.000  C
  H30      1.0000 0.85290  0.10312  0.58999  Biso   1.000  H
  C52      1.0000 0.99897  0.93209  0.39780  Biso   1.000  C
  C53      1.0000 0.11029  0.86460  0.38678  Biso   1.000  C
  H31      1.0000 0.19428  0.89078  0.87421  Biso   1.000  H
  F5       1.0000 0.62629  0.81509  0.26667  Biso   1.000  F
  C54      1.0000 0.10497  0.51858  0.38379  Biso   1.000  C
  C55      1.0000 0.14287  0.60391  0.31122  Biso   1.000  C
  C56      1.0000 0.08479  0.50689  0.25888  Biso   1.000  C
  C57      1.0000 0.99160  0.98980  0.43108  Biso   1.000  C
  C58      1.0000 0.95061  0.92110  0.34101  Biso   1.000  C
  C59      1.0000 0.12640  0.88752  0.32709  Biso   1.000  C
  N4       1.0000 0.16236  0.81509  0.40388  Biso   1.000  N
  C60      1.0000 0.17881  0.51761  0.41770  Biso   1.000  C
  C61      1.0000 0.04951  0.48589  0.40927  Biso   1.000  C
  C62      1.0000 0.20810  0.59721  0.28480  Biso   1.000  C
  S2       1.0000 0.13967  0.67364  0.35061  Biso   1.000  S
  C63      1.0000 0.09387  0.44220  0.26942  Biso   1.000  C
  C64      1.0000 0.06962  0.52869  0.19469  Biso   1.000  C
  C65      1.0000 0.93409  0.03018  0.40711  Biso   1.000  C
  F6       1.0000 0.03948  0.00671  0.48179  Biso   1.000  F
  F7       1.0000 0.95498  0.86940  0.30891  Biso   1.000  F
  C66      1.0000 0.89167  0.96381  0.31460  Biso   1.000  C
  H32      1.0000 0.10098  0.91998  0.30298  Biso   1.000  H
  C67      1.0000 0.18710  0.85310  0.31009  Biso   1.000  C
  C68      1.0000 0.20796  0.80769  0.35968  Biso   1.000  C
  H33      1.0000 0.16431  0.79259  0.43857  Biso   1.000  H
  H34      1.0000 0.21672  0.53931  0.40069  Biso   1.000  H
  C69      1.0000 0.19848  0.48579  0.47528  Biso   1.000  C
  H35      1.0000 0.99960  0.48528  0.38658  Biso   1.000  H
  C70      1.0000 0.06677  0.45361  0.46837  Biso   1.000  C
  C71      1.0000 0.25640  0.64970  0.29607  Biso   1.000  C
  H36      1.0000 0.21938  0.56209  0.26192  Biso   1.000  H
  C72      1.0000 0.22716  0.69609  0.33268  Biso   1.000  C
  C73      1.0000 0.08991  0.40098  0.21831  Biso   1.000  C
  H37      1.0000 0.10297  0.42711  0.31220  Biso   1.000  H
  H38      1.0000 0.06147  0.57098  0.18641  Biso   1.000  H
  C74      1.0000 0.06660  0.48701  0.14289  Biso   1.000  C
  C75      1.0000 0.88619  0.01751  0.34919  Biso   1.000  C
  F8       1.0000 0.92839  0.08440  0.43730  Biso   1.000  F
  F9       1.0000 0.84517  0.95109  0.26192  Biso   1.000  F
  H39      1.0000 0.20980  0.85892  0.27299  Biso   1.000  H
  C76      1.0000 0.26721  0.75552  0.36228  Biso   1.000  C
  C77      1.0000 0.14256  0.45482  0.50218  Biso   1.000  C
  H40      1.0000 0.24921  0.48510  0.49630  Biso   1.000  H
  H41      1.0000 0.02891  0.43172  0.48508  Biso   1.000  H
  H42      1.0000 0.30282  0.65310  0.28069  Biso   1.000  H
  H43      1.0000 0.09710  0.35850  0.22600  Biso   1.000  H
  C78      1.0000 0.07438  0.42450  0.15372  Biso   1.000  C
  H44      1.0000 0.05909  0.50191  0.10011  Biso   1.000  H
  F10      1.0000 0.83289  0.05929  0.32479  Biso   1.000  F
  C79      1.0000 0.30448  0.74360  0.43500  Biso   1.000  C
  C80      1.0000 0.32910  0.77410  0.32288  Biso   1.000  C
  H45      1.0000 0.15501  0.43489  0.54241  Biso   1.000  H
  H46      1.0000 0.06958  0.39730  0.11829  Biso   1.000  H
  C81      1.0000 0.32489  0.79311  0.47631  Biso   1.000  C
  C82      1.0000 0.32558  0.68281  0.45837  Biso   1.000  C
  C83      1.0000 0.31362  0.77550  0.25530  Biso   1.000  C
  C84      1.0000 0.40289  0.79031  0.35120  Biso   1.000  C
  H47      1.0000 0.31088  0.83330  0.46278  Biso   1.000  H
  C85      1.0000 0.36758  0.78239  0.53981  Biso   1.000  C
  C86      1.0000 0.36457  0.67168  0.51997  Biso   1.000  C
  H48      1.0000 0.31219  0.64900  0.43068  Biso   1.000  H
  H49      1.0000 0.26427  0.76600  0.23438  Biso   1.000  H
  C87      1.0000 0.36830  0.79031  0.21811  Biso   1.000  C
  H50      1.0000 0.41576  0.79031  0.39658  Biso   1.000  H
  C88      1.0000 0.45689  0.80629  0.31430  Biso   1.000  C
  H51      1.0000 0.38389  0.81588  0.56711  Biso   1.000  H
  C89      1.0000 0.38500  0.72208  0.56079  Biso   1.000  C
  H52      1.0000 0.37717  0.63130  0.53408  Biso   1.000  H
  C90      1.0000 0.44139  0.80522  0.24928  Biso   1.000  C
  H53      1.0000 0.35648  0.79031  0.17259  Biso   1.000  H
  H54      1.0000 0.50541  0.81821  0.33498  Biso   1.000  H
  H55      1.0000 0.41079  0.71542  0.60308  Biso   1.000  H
  H56      1.0000 0.47956  0.81439  0.22478  Biso   1.000  H
  C91      1.0000 0.53160  0.47671  0.63189  Biso   1.000  C
  C92      1.0000 0.51277  0.41952  0.65017  Biso   1.000  C
  C93      1.0000 0.49110  0.50461  0.57451  Biso   1.000  C
  F11      1.0000 0.58761  0.51141  0.66570  Biso   1.000  F
  C94      1.0000 0.45458  0.38412  0.61327  Biso   1.000  C
  F12      1.0000 0.55288  0.39441  0.70436  Biso   1.000  F
  C95      1.0000 0.43238  0.46921  0.53511  Biso   1.000  C
  F13      1.0000 0.50826  0.56050  0.55750  Biso   1.000  F
  C96      1.0000 0.41417  0.40908  0.55339  Biso   1.000  C
  F14      1.0000 0.44219  0.32911  0.63120  Biso   1.000  F
  F15      1.0000 0.39447  0.49832  0.48297  Biso   1.000  F
  C97      1.0000 0.35178  0.37438  0.51428  Biso   1.000  C
  C98      1.0000 0.34307  0.37299  0.44578  Biso   1.000  C
  C99      1.0000 0.29980  0.34602  0.54907  Biso   1.000  C
  N5       1.0000 0.39777  0.38570  0.40687  Biso   1.000  N
  C100     1.0000 0.27042  0.36451  0.40001  Biso   1.000  C
  N6       1.0000 0.25049  0.29800  0.52247  Biso   1.000  N
  C101     1.0000 0.28057  0.35971  0.60959  Biso   1.000  C
  C102     1.0000 0.36759  0.38551  0.34287  Biso   1.000  C
  H57      1.0000 0.44530  0.39292  0.42181  Biso   1.000  H
  C103     1.0000 0.28681  0.37350  0.33738  Biso   1.000  C
  H58      1.0000 0.22278  0.35501  0.41108  Biso   1.000  H
  C104     1.0000 0.20127  0.28458  0.56338  Biso   1.000  C
  H59      1.0000 0.25168  0.27979  0.48557  Biso   1.000  H
  H60      1.0000 0.30548  0.38840  0.63929  Biso   1.000  H
  C105     1.0000 0.21759  0.32320  0.61910  Biso   1.000  C
  C106     1.0000 0.41277  0.40298  0.28912  Biso   1.000  C
  H61      1.0000 0.25179  0.37201  0.29857  Biso   1.000  H
  C107     1.0000 0.14017  0.23358  0.54937  Biso   1.000  C
  H62      1.0000 0.19176  0.32422  0.65487  Biso   1.000  H
  C108     1.0000 0.35450  0.40810  0.22370  Biso   1.000  C
  C109     1.0000 0.46858  0.35161  0.27789  Biso   1.000  C
  C110     1.0000 0.45461  0.46530  0.31009  Biso   1.000  C
  C111     1.0000 0.09937  0.23959  0.47709  Biso   1.000  C
  C112     1.0000 0.08240  0.24462  0.59641  Biso   1.000  C
  C113     1.0000 0.17921  0.16921  0.56098  Biso   1.000  C
  C114     1.0000 0.31649  0.35552  0.19851  Biso   1.000  C
  C115     1.0000 0.34062  0.46530  0.18871  Biso   1.000  C
  S3       1.0000 0.50154  0.29655  0.33577  Biso   1.000  S
  C116     1.0000 0.50019  0.34248  0.22179  Biso   1.000  C
  C117     1.0000 0.41480  0.51360  0.33190  Biso   1.000  C
  C118     1.0000 0.53298  0.47140  0.31210  Biso   1.000  C
  C119     1.0000 0.08999  0.29618  0.44671  Biso   1.000  C
  C120     1.0000 0.06389  0.18910  0.44240  Biso   1.000  C
  C121     1.0000 0.02290  0.28440  0.58068  Biso   1.000  C
  C122     1.0000 0.09510  0.22222  0.66129  Biso   1.000  C
  S4       1.0000 0.27522  0.15869  0.56039  Biso   1.000  S
  C123     1.0000 0.14739  0.11341  0.57407  Biso   1.000  C
  H63      1.0000 0.32738  0.31761  0.21968  Biso   1.000  H
  C124     1.0000 0.26307  0.35762  0.14309  Biso   1.000  C
  H64      1.0000 0.36730  0.50140  0.20312  Biso   1.000  H
  C125     1.0000 0.28702  0.46521  0.13348  Biso   1.000  C
  C126     1.0000 0.55748  0.26190  0.28681  Biso   1.000  C
  H65      1.0000 0.48889  0.36758  0.18489  Biso   1.000  H
  C127     1.0000 0.55110  0.29171  0.22571  Biso   1.000  C
  C128     1.0000 0.45006  0.56889  0.35218  Biso   1.000  C
  H66      1.0000 0.36268  0.50880  0.33288  Biso   1.000  H
  C129     1.0000 0.56781  0.52748  0.33278  Biso   1.000  C
  H67      1.0000 0.56170  0.43852  0.29970  Biso   1.000  H
  H68      1.0000 0.11307  0.33079  0.46861  Biso   1.000  H
  C130     1.0000 0.04727  0.30452  0.38398  Biso   1.000  C
  H69      1.0000 0.06877  0.14960  0.46112  Biso   1.000  H
  C131     1.0000 0.02051  0.19679  0.37948  Biso   1.000  C
  H70      1.0000 0.01239  0.29921  0.53790  Biso   1.000  H
  C132     1.0000 0.97578  0.30480  0.62547  Biso   1.000  C
  H71      1.0000 0.13818  0.19790  0.67511  Biso   1.000  H
  C133     1.0000 0.04867  0.23442  0.70289  Biso   1.000  C
  C134     1.0000 0.27207  0.08011  0.57759  Biso   1.000  C
  H72      1.0000 0.09591  0.10871  0.57750  Biso   1.000  H
  C135     1.0000 0.19922  0.06511  0.58191  Biso   1.000  C
  H73      1.0000 0.23640  0.32170  0.12809  Biso   1.000  H
  C136     1.0000 0.24818  0.41290  0.10869  Biso   1.000  C
  H74      1.0000 0.27600  0.50261  0.11138  Biso   1.000  H
  C137     1.0000 0.61199  0.20722  0.31161  Biso   1.000  C
  H75      1.0000 0.57708  0.27951  0.19219  Biso   1.000  H
  H76      1.0000 0.42119  0.60158  0.36468  Biso   1.000  H
  C138     1.0000 0.52667  0.57648  0.35419  Biso   1.000  C
  H77      1.0000 0.61998  0.53251  0.33239  Biso   1.000  H
  C139     1.0000 0.01327  0.25431  0.35169  Biso   1.000  C
  H78      1.0000 0.04237  0.34378  0.36487  Biso   1.000  H
  H79      1.0000 0.99698  0.16260  0.35698  Biso   1.000  H
  H80      1.0000 0.93700  0.33419  0.61547  Biso   1.000  H
  C140     1.0000 0.99518  0.27401  0.69050  Biso   1.000  C
  H81      1.0000 0.05516  0.21341  0.74268  Biso   1.000  H
  C141     1.0000 0.34008  0.03531  0.58019  Biso   1.000  C
  H82      1.0000 0.18469  0.02450  0.58960  Biso   1.000  H
  H83      1.0000 0.21303  0.41439  0.07012  Biso   1.000  H
  C142     1.0000 0.69148  0.23139  0.34081  Biso   1.000  C
  C143     1.0000 0.61347  0.16050  0.25437  Biso   1.000  C
  C144     1.0000 0.57677  0.17299  0.36571  Biso   1.000  C
  H84      1.0000 0.55086  0.61332  0.36948  Biso   1.000  H
  H85      1.0000 0.98467  0.25929  0.31009  Biso   1.000  H
  H86      1.0000 0.96689  0.28412  0.72318  Biso   1.000  H
  C145     1.0000 0.41818  0.07159  0.59617  Biso   1.000  C
  C146     1.0000 0.34076  0.00168  0.51639  Biso   1.000  C
  C147     1.0000 0.33498  0.98961  0.63860  Biso   1.000  C
  C148     1.0000 0.71618  0.29190  0.33190  Biso   1.000  C
  C149     1.0000 0.74367  0.19162  0.37977  Biso   1.000  C
  C150     1.0000 0.54349  0.14131  0.21551  Biso   1.000  C
  C151     1.0000 0.67979  0.13340  0.24222  Biso   1.000  C
  C152     1.0000 0.53109  0.12068  0.36340  Biso   1.000  C
  N7       1.0000 0.58817  0.19371  0.42760  Biso   1.000  N
  N8       1.0000 0.44287  0.10638  0.55030  Biso   1.000  N
  C153     1.0000 0.47618  0.06819  0.64958  Biso   1.000  C
  C154     1.0000 0.27699  0.00200  0.46508  Biso   1.000  C
  C155     1.0000 0.40539  0.97150  0.50429  Biso   1.000  C
  C156     1.0000 0.33599  0.01029  0.70000  Biso   1.000  C
  C157     1.0000 0.32880  0.92641  0.62640  Biso   1.000  C
  H87      1.0000 0.68331  0.31961  0.30671  Biso   1.000  H
  C158     1.0000 0.78821  0.31132  0.35958  Biso   1.000  C
  H88      1.0000 0.73018  0.15030  0.38550  Biso   1.000  H
  C159     1.0000 0.81348  0.21262  0.40917  Biso   1.000  C
  C160     1.0000 0.54321  0.09548  0.17122  Biso   1.000  C
  H89      1.0000 0.49778  0.16060  0.22071  Biso   1.000  H
  H90      1.0000 0.72626  0.14672  0.26579  Biso   1.000  H
  C161     1.0000 0.67989  0.08612  0.19518  Biso   1.000  C
  C162     1.0000 0.51506  0.11001  0.42348  Biso   1.000  C
  H91      1.0000 0.51438  0.09679  0.32631  Biso   1.000  H
  C163     1.0000 0.55126  0.15538  0.46518  Biso   1.000  C
  H92      1.0000 0.61460  0.22608  0.44161  Biso   1.000  H
  C164     1.0000 0.51477  0.12650  0.57289  Biso   1.000  C
  H93      1.0000 0.41710  0.11481  0.51227  Biso   1.000  H
  C165     1.0000 0.53648  0.10340  0.63610  Biso   1.000  C
  H94      1.0000 0.47466  0.04602  0.68800  Biso   1.000  H
  H95      1.0000 0.23160  0.02138  0.47077  Biso   1.000  H
  C166     1.0000 0.28327  0.97238  0.40481  Biso   1.000  C
  H96      1.0000 0.44886  0.97168  0.53638  Biso   1.000  H
  C167     1.0000 0.40775  0.93968  0.44367  Biso   1.000  C
  H97      1.0000 0.33797  0.05282  0.70887  Biso   1.000  H
  C168     1.0000 0.33387  0.96758  0.75008  Biso   1.000  C
  C169     1.0000 0.32640  0.88072  0.68241  Biso   1.000  C
  H98      1.0000 0.32601  0.91169  0.58377  Biso   1.000  H
  C170     1.0000 0.83519  0.27210  0.40060  Biso   1.000  C
  H99      1.0000 0.80507  0.35091  0.35052  Biso   1.000  H
  H100     1.0000 0.84658  0.18579  0.43558  Biso   1.000  H
  H101     1.0000 0.49681  0.08179  0.14769  Biso   1.000  H
  C171     1.0000 0.61199  0.06800  0.15980  Biso   1.000  C
  H102     1.0000 0.72549  0.06758  0.18851  Biso   1.000  H
  H103     1.0000 0.48490  0.07778  0.43519  Biso   1.000  H
  C172     1.0000 0.56396  0.15980  0.53511  Biso   1.000  C
  H104     1.0000 0.58276  0.11048  0.66369  Biso   1.000  H
  H105     1.0000 0.24288  0.97480  0.36987  Biso   1.000  H
  C173     1.0000 0.34882  0.94001  0.39751  Biso   1.000  C
  H106     1.0000 0.45209  0.91868  0.43750  Biso   1.000  H
  H107     1.0000 0.33669  0.98179  0.79286  Biso   1.000  H
  C174     1.0000 0.32796  0.90722  0.73837  Biso   1.000  C
  H108     1.0000 0.32399  0.83768  0.67658  Biso   1.000  H
  H109     1.0000 0.88211  0.28649  0.42240  Biso   1.000  H
  H110     1.0000 0.61099  0.03731  0.12799  Biso   1.000  H
  C175     1.0000 0.62928  0.19511  0.56971  Biso   1.000  C
  H111     1.0000 0.35059  0.91821  0.35890  Biso   1.000  H
  H112     1.0000 0.32458  0.88142  0.77390  Biso   1.000  H
  C176     1.0000 0.61950  0.24029  0.61547  Biso   1.000  C
  C177     1.0000 0.70376  0.18570  0.55618  Biso   1.000  C
  C178     1.0000 0.68216  0.27718  0.64419  Biso   1.000  C
  F16      1.0000 0.55209  0.25119  0.63287  Biso   1.000  F
  C179     1.0000 0.76418  0.22361  0.58347  Biso   1.000  C
  F17      1.0000 0.71680  0.14061  0.51590  Biso   1.000  F
  C180     1.0000 0.75260  0.26931  0.62670  Biso   1.000  C
  F18      1.0000 0.66996  0.32231  0.68677  Biso   1.000  F
  F19      1.0000 0.83307  0.21528  0.56971  Biso   1.000  F
  F20      1.0000 0.80910  0.30559  0.65541  Biso   1.000  F
  C181     1.0000 0.56780  0.47252  0.83280  Biso   1.000  C
  C182     1.0000 0.53296  0.52860  0.81207  Biso   1.000  C
  C183     1.0000 0.52666  0.42352  0.85417  Biso   1.000  C
  H113     1.0000 0.61998  0.46749  0.83241  Biso   1.000  H
  C184     1.0000 0.45460  0.53470  0.81006  Biso   1.000  C
  H114     1.0000 0.56169  0.56148  0.79967  Biso   1.000  H
  C185     1.0000 0.45006  0.43111  0.85221  Biso   1.000  C
  H115     1.0000 0.55085  0.38668  0.86950  Biso   1.000  H
  C186     1.0000 0.41276  0.59702  0.78909  Biso   1.000  C
  C187     1.0000 0.41478  0.48640  0.83187  Biso   1.000  C
  H116     1.0000 0.42118  0.39842  0.86470  Biso   1.000  H
  C188     1.0000 0.35449  0.59190  0.72367  Biso   1.000  C
  C189     1.0000 0.46857  0.64839  0.77787  Biso   1.000  C
  C190     1.0000 0.36759  0.61449  0.84289  Biso   1.000  C
  H117     1.0000 0.36268  0.49120  0.83290  Biso   1.000  H
  C191     1.0000 0.34061  0.53470  0.68868  Biso   1.000  C
  C192     1.0000 0.31647  0.64448  0.69848  Biso   1.000  C
  S5       1.0000 0.50153  0.70345  0.83574  Biso   1.000  S
  C193     1.0000 0.50019  0.65752  0.72181  Biso   1.000  C
  C194     1.0000 0.28681  0.62650  0.83741  Biso   1.000  C
  N9       1.0000 0.39776  0.61430  0.90689  Biso   1.000  N
  C195     1.0000 0.28701  0.53479  0.63351  Biso   1.000  C
  H118     1.0000 0.36729  0.49860  0.70309  Biso   1.000  H
  C196     1.0000 0.26307  0.64238  0.64311  Biso   1.000  C
  H119     1.0000 0.32738  0.68239  0.71970  Biso   1.000  H
  C197     1.0000 0.55747  0.73810  0.78679  Biso   1.000  C
  H120     1.0000 0.48888  0.63242  0.68491  Biso   1.000  H
  C198     1.0000 0.55108  0.70829  0.72568  Biso   1.000  C
  C199     1.0000 0.27040  0.63549  0.89998  Biso   1.000  C
  H121     1.0000 0.25178  0.62799  0.79860  Biso   1.000  H
  C200     1.0000 0.34307  0.62701  0.94580  Biso   1.000  C
  H122     1.0000 0.44529  0.60708  0.92179  Biso   1.000  H
  C201     1.0000 0.24817  0.58710  0.60871  Biso   1.000  C
  H123     1.0000 0.27600  0.49739  0.61141  Biso   1.000  H
  H124     1.0000 0.23638  0.67830  0.62807  Biso   1.000  H
  C202     1.0000 0.61197  0.79278  0.81158  Biso   1.000  C
  H125     1.0000 0.57708  0.72049  0.69221  Biso   1.000  H
  H126     1.0000 0.22277  0.64499  0.91111  Biso   1.000  H
  C203     1.0000 0.35177  0.62562  0.01431  Biso   1.000  C
  H127     1.0000 0.21301  0.58561  0.57010  Biso   1.000  H
  C204     1.0000 0.69147  0.76861  0.84079  Biso   1.000  C
  C205     1.0000 0.61347  0.83950  0.75440  Biso   1.000  C
  C206     1.0000 0.57676  0.82701  0.86568  Biso   1.000  C
  C207     1.0000 0.29980  0.65398  0.04910  Biso   1.000  C
  C208     1.0000 0.41417  0.59092  0.05341  Biso   1.000  C
  C209     1.0000 0.71617  0.70810  0.83187  Biso   1.000  C
  C210     1.0000 0.74366  0.80838  0.87979  Biso   1.000  C
  C211     1.0000 0.54348  0.85869  0.71549  Biso   1.000  C
  C212     1.0000 0.67978  0.86660  0.74219  Biso   1.000  C
  C213     1.0000 0.53108  0.87932  0.86338  Biso   1.000  C
  N10      1.0000 0.58815  0.80629  0.92757  Biso   1.000  N
  N11      1.0000 0.25049  0.70200  0.02249  Biso   1.000  N
  C214     1.0000 0.28057  0.64029  0.10962  Biso   1.000  C
  C215     1.0000 0.45458  0.61588  0.11329  Biso   1.000  C
  C216     1.0000 0.43237  0.53079  0.03508  Biso   1.000  C
  H128     1.0000 0.68330  0.68039  0.80668  Biso   1.000  H
  C217     1.0000 0.78820  0.68868  0.85960  Biso   1.000  C
  H129     1.0000 0.73016  0.84970  0.88548  Biso   1.000  H
  C218     1.0000 0.81347  0.78738  0.90920  Biso   1.000  C
  C219     1.0000 0.54320  0.90452  0.67119  Biso   1.000  C
  H130     1.0000 0.49777  0.83940  0.72068  Biso   1.000  H
  H131     1.0000 0.72624  0.85328  0.76576  Biso   1.000  H
  C220     1.0000 0.67988  0.91388  0.69520  Biso   1.000  C
  C221     1.0000 0.51505  0.88999  0.92350  Biso   1.000  C
  H132     1.0000 0.51436  0.90321  0.82628  Biso   1.000  H
  C222     1.0000 0.55125  0.84462  0.96521  Biso   1.000  C
  H133     1.0000 0.61458  0.77392  0.94159  Biso   1.000  H
  H134     1.0000 0.25168  0.72021  0.98559  Biso   1.000  H
  C223     1.0000 0.20126  0.71542  0.06341  Biso   1.000  C
  H135     1.0000 0.30548  0.61160  0.13931  Biso   1.000  H
  C224     1.0000 0.21758  0.67680  0.11907  Biso   1.000  C
  C225     1.0000 0.51276  0.58048  0.15019  Biso   1.000  C
  F21      1.0000 0.44217  0.67089  0.13118  Biso   1.000  F
  F22      1.0000 0.39446  0.50168  0.98299  Biso   1.000  F
  C226     1.0000 0.49109  0.49539  0.07448  Biso   1.000  C
  C227     1.0000 0.83517  0.72790  0.90057  Biso   1.000  C
  H136     1.0000 0.80506  0.64909  0.85049  Biso   1.000  H
  H137     1.0000 0.84657  0.81421  0.93561  Biso   1.000  H
  H138     1.0000 0.49679  0.91821  0.64767  Biso   1.000  H
  C228     1.0000 0.61198  0.93200  0.65977  Biso   1.000  C
  H139     1.0000 0.72547  0.93242  0.68849  Biso   1.000  H
  H140     1.0000 0.48488  0.92222  0.93517  Biso   1.000  H
  C229     1.0000 0.56395  0.84020  0.03508  Biso   1.000  C
  C230     1.0000 0.14017  0.76642  0.04939  Biso   1.000  C
  H141     1.0000 0.19175  0.67578  0.15489  Biso   1.000  H
  C231     1.0000 0.53160  0.52329  0.13191  Biso   1.000  C
  F23      1.0000 0.55288  0.60559  0.20439  Biso   1.000  F
  F24      1.0000 0.50824  0.43950  0.05748  Biso   1.000  F
  H142     1.0000 0.88210  0.71351  0.92238  Biso   1.000  H
  H143     1.0000 0.61098  0.96269  0.62797  Biso   1.000  H
  C232     1.0000 0.62927  0.80489  0.06968  Biso   1.000  C
  C233     1.0000 0.51476  0.87350  0.07291  Biso   1.000  C
  C234     1.0000 0.09935  0.76041  0.97706  Biso   1.000  C
  C235     1.0000 0.08239  0.75538  0.09639  Biso   1.000  C
  C236     1.0000 0.17920  0.83079  0.06101  Biso   1.000  C
  F25      1.0000 0.58759  0.48859  0.16568  Biso   1.000  F
  C237     1.0000 0.61949  0.75971  0.11550  Biso   1.000  C
  C238     1.0000 0.70376  0.81430  0.05620  Biso   1.000  C
  C239     1.0000 0.53647  0.89660  0.13608  Biso   1.000  C
  N12      1.0000 0.44286  0.89362  0.05027  Biso   1.000  N
  C240     1.0000 0.08997  0.70382  0.94668  Biso   1.000  C
  C241     1.0000 0.06387  0.81090  0.94237  Biso   1.000  C
  C242     1.0000 0.02290  0.71560  0.08070  Biso   1.000  C
  C243     1.0000 0.09510  0.77778  0.16131  Biso   1.000  C
  S6       1.0000 0.27522  0.84131  0.06042  Biso   1.000  S
  C244     1.0000 0.14739  0.88659  0.07409  Biso   1.000  C
  C245     1.0000 0.68216  0.72282  0.14421  Biso   1.000  C
  F26      1.0000 0.55208  0.74881  0.13289  Biso   1.000  F
  C246     1.0000 0.76417  0.77639  0.08350  Biso   1.000  C
  F27      1.0000 0.71679  0.85939  0.01587  Biso   1.000  F
  H144     1.0000 0.58275  0.88952  0.16372  Biso   1.000  H
  C247     1.0000 0.47618  0.93181  0.14960  Biso   1.000  C
  C248     1.0000 0.41817  0.92841  0.09619  Biso   1.000  C
  H145     1.0000 0.41709  0.88519  0.01230  Biso   1.000  H
  H146     1.0000 0.11305  0.66921  0.96859  Biso   1.000  H
  C249     1.0000 0.04727  0.69548  0.88401  Biso   1.000  C
  H147     1.0000 0.06876  0.85040  0.96109  Biso   1.000  H
  C250     1.0000 0.02051  0.80321  0.87950  Biso   1.000  C
  C251     1.0000 0.97577  0.69520  0.12549  Biso   1.000  C
  H148     1.0000 0.01238  0.70079  0.03788  Biso   1.000  H
  H149     1.0000 0.13817  0.80210  0.17508  Biso   1.000  H
  C252     1.0000 0.04867  0.76558  0.20292  Biso   1.000  C
  C253     1.0000 0.27207  0.91989  0.07762  Biso   1.000  C
  H150     1.0000 0.09591  0.89129  0.07752  Biso   1.000  H
  C254     1.0000 0.19915  0.93489  0.08188  Biso   1.000  C
  C255     1.0000 0.75260  0.73069  0.12672  Biso   1.000  C
  F28      1.0000 0.66995  0.67769  0.18680  Biso   1.000  F
  F29      1.0000 0.83306  0.78472  0.06968  Biso   1.000  F
  H151     1.0000 0.47465  0.95398  0.18797  Biso   1.000  H
  C256     1.0000 0.34008  0.96469  0.08021  Biso   1.000  C
  C257     1.0000 0.01326  0.74569  0.85167  Biso   1.000  C
  H152     1.0000 0.04237  0.65622  0.86490  Biso   1.000  H
  H153     1.0000 0.99698  0.83740  0.85701  Biso   1.000  H
  H154     1.0000 0.93699  0.66581  0.11550  Biso   1.000  H
  C258     1.0000 0.99517  0.72599  0.19047  Biso   1.000  C
  H155     1.0000 0.05516  0.78659  0.24271  Biso   1.000  H
  H156     1.0000 0.18467  0.97550  0.08957  Biso   1.000  H
  F30      1.0000 0.80909  0.69441  0.15538  Biso   1.000  F
  C259     1.0000 0.34076  0.99832  0.01641  Biso   1.000  C
  C260     1.0000 0.33497  0.01039  0.13858  Biso   1.000  C
  H157     1.0000 0.98465  0.74071  0.81006  Biso   1.000  H
  H158     1.0000 0.96689  0.71588  0.22320  Biso   1.000  H
  C261     1.0000 0.27699  0.99800  0.96511  Biso   1.000  C
  C262     1.0000 0.40539  0.02850  0.00431  Biso   1.000  C
  C263     1.0000 0.33598  0.98971  0.19998  Biso   1.000  C
  C264     1.0000 0.32878  0.07359  0.12638  Biso   1.000  C
  H159     1.0000 0.23160  0.97862  0.97079  Biso   1.000  H
  C265     1.0000 0.28325  0.02762  0.90479  Biso   1.000  C
  C266     1.0000 0.40781  0.06032  0.94369  Biso   1.000  C
  H160     1.0000 0.44885  0.02832  0.03641  Biso   1.000  H
  H161     1.0000 0.33797  0.94718  0.20890  Biso   1.000  H
  C267     1.0000 0.33387  0.03242  0.25011  Biso   1.000  C
  C268     1.0000 0.32639  0.11928  0.18239  Biso   1.000  C
  H162     1.0000 0.32595  0.08831  0.08379  Biso   1.000  H
  H163     1.0000 0.24287  0.02520  0.86990  Biso   1.000  H
  C269     1.0000 0.34880  0.05999  0.89748  Biso   1.000  C
  H164     1.0000 0.45208  0.08132  0.93747  Biso   1.000  H
  H165     1.0000 0.33669  0.01821  0.29289  Biso   1.000  H
  C270     1.0000 0.32795  0.09278  0.23840  Biso   1.000  C
  H166     1.0000 0.32398  0.16232  0.17660  Biso   1.000  H
  H167     1.0000 0.35057  0.08179  0.85887  Biso   1.000  H
  H168     1.0000 0.32457  0.11858  0.27387  Biso   1.000  H
  C271     1.0000 0.88398  0.38691  0.78159  Biso   1.000  C
  C272     1.0000 0.90715  0.36870  0.84618  Biso   1.000  C
  H169     1.0000 0.83637  0.37871  0.75650  Biso   1.000  H
  C273     1.0000 0.94368  0.41928  0.76028  Biso   1.000  C
  C274     1.0000 0.86355  0.33982  0.88901  Biso   1.000  C
  N13      1.0000 0.98175  0.39050  0.86490  Biso   1.000  N
  C275     1.0000 0.00461  0.42091  0.81271  Biso   1.000  C
  H170     1.0000 0.94309  0.43670  0.71907  Biso   1.000  H
  C276     1.0000 0.79838  0.30070  0.85397  Biso   1.000  C
  C277     1.0000 0.87225  0.34718  0.95541  Biso   1.000  C
  H171     1.0000 0.00926  0.38579  0.90287  Biso   1.000  H
  C278     1.0000 0.08347  0.44891  0.81820  Biso   1.000  C
  C279     1.0000 0.81216  0.25291  0.81197  Biso   1.000  C
  C280     1.0000 0.72418  0.30880  0.86397  Biso   1.000  C
  C281     1.0000 0.90917  0.39721  0.99529  Biso   1.000  C
  N14      1.0000 0.83325  0.31272  0.99686  Biso   1.000  N
  C282     1.0000 0.10496  0.48142  0.88376  Biso   1.000  C
  C283     1.0000 0.14286  0.39609  0.81119  Biso   1.000  C
  C284     1.0000 0.08478  0.49311  0.75890  Biso   1.000  C
  C285     1.0000 0.75436  0.21458  0.78208  Biso   1.000  C
  F31      1.0000 0.88267  0.24178  0.80041  Biso   1.000  F
  C286     1.0000 0.66589  0.27038  0.83417  Biso   1.000  C
  F32      1.0000 0.70599  0.35780  0.89949  Biso   1.000  F
  H172     1.0000 0.93917  0.42850  0.98157  Biso   1.000  H
  C287     1.0000 0.89169  0.38989  0.05758  Biso   1.000  C
  H173     1.0000 0.80589  0.28030  0.98510  Biso   1.000  H
  C288     1.0000 0.84466  0.33712  0.05851  Biso   1.000  C
  C289     1.0000 0.17879  0.48239  0.91767  Biso   1.000  C
  C290     1.0000 0.04951  0.51411  0.90929  Biso   1.000  C
  C291     1.0000 0.20809  0.40279  0.78478  Biso   1.000  C
  S7       1.0000 0.13967  0.32636  0.85064  Biso   1.000  S
  C292     1.0000 0.09386  0.55780  0.76939  Biso   1.000  C
  C293     1.0000 0.06961  0.47131  0.69471  Biso   1.000  C
  C294     1.0000 0.68236  0.22371  0.79438  Biso   1.000  C
  F33      1.0000 0.76919  0.16842  0.74288  Biso   1.000  F
  F34      1.0000 0.59420  0.27979  0.84427  Biso   1.000  F
  H174     1.0000 0.90818  0.41579  0.09320  Biso   1.000  H
  C295     1.0000 0.80796  0.30838  0.11138  Biso   1.000  C
  H175     1.0000 0.21670  0.46069  0.90067  Biso   1.000  H
  C296     1.0000 0.19848  0.51421  0.97530  Biso   1.000  C
  H176     1.0000 0.99959  0.51472  0.88661  Biso   1.000  H
  C297     1.0000 0.06676  0.54639  0.96839  Biso   1.000  C
  C298     1.0000 0.25639  0.35030  0.79610  Biso   1.000  C
  H177     1.0000 0.21937  0.43791  0.76189  Biso   1.000  H
  C299     1.0000 0.22716  0.30391  0.83270  Biso   1.000  C
  C300     1.0000 0.08990  0.59902  0.71828  Biso   1.000  C
  H178     1.0000 0.10295  0.57289  0.81217  Biso   1.000  H
  H179     1.0000 0.06146  0.42902  0.68638  Biso   1.000  H
  C301     1.0000 0.06658  0.51299  0.64287  Biso   1.000  C
  F35      1.0000 0.62628  0.18491  0.76670  Biso   1.000  F
  C302     1.0000 0.80894  0.35720  0.16788  Biso   1.000  C
  C303     1.0000 0.72517  0.28901  0.08208  Biso   1.000  C
  C304     1.0000 0.85770  0.25338  0.14019  Biso   1.000  C
  H180     1.0000 0.24920  0.51490  0.99627  Biso   1.000  H
  C305     1.0000 0.14256  0.54518  0.00220  Biso   1.000  C
  H181     1.0000 0.02891  0.56828  0.98510  Biso   1.000  H
  H182     1.0000 0.30281  0.34690  0.78071  Biso   1.000  H
  C306     1.0000 0.26720  0.24448  0.86230  Biso   1.000  C
  H183     1.0000 0.09708  0.64150  0.72597  Biso   1.000  H
  C307     1.0000 0.07437  0.57550  0.65370  Biso   1.000  C
  H184     1.0000 0.05907  0.49809  0.60009  Biso   1.000  H
  C308     1.0000 0.74188  0.38370  0.18209  Biso   1.000  C
  C309     1.0000 0.87899  0.37611  0.20419  Biso   1.000  C
  C310     1.0000 0.67865  0.33051  0.04351  Biso   1.000  C
  C311     1.0000 0.69785  0.22972  0.09149  Biso   1.000  C
  C312     1.0000 0.85766  0.22492  0.19968  Biso   1.000  C
  S8       1.0000 0.91882  0.21551  0.09648  Biso   1.000  S
  H185     1.0000 0.15500  0.56511  0.04238  Biso   1.000  H
  C313     1.0000 0.20801  0.19231  0.85970  Biso   1.000  C
  C314     1.0000 0.30447  0.25640  0.93497  Biso   1.000  C
  C315     1.0000 0.32910  0.22590  0.82290  Biso   1.000  C
  H186     1.0000 0.06956  0.60270  0.61827  Biso   1.000  H
  C316     1.0000 0.74757  0.42850  0.23217  Biso   1.000  C
  H187     1.0000 0.69438  0.37219  0.15901  Biso   1.000  H
  C317     1.0000 0.88337  0.42068  0.25128  Biso   1.000  C
  H188     1.0000 0.92396  0.35752  0.19601  Biso   1.000  H
  H189     1.0000 0.69749  0.36968  0.03557  Biso   1.000  H
  C318     1.0000 0.60516  0.31509  0.01641  Biso   1.000  C
  C319     1.0000 0.62165  0.21402  0.06238  Biso   1.000  C
  H190     1.0000 0.72885  0.20061  0.11638  Biso   1.000  H
  H191     1.0000 0.82888  0.23852  0.23070  Biso   1.000  H
  C320     1.0000 0.90677  0.17219  0.20841  Biso   1.000  C
  C321     1.0000 0.94447  0.16041  0.15632  Biso   1.000  C
  C322     1.0000 0.18709  0.14690  0.81006  Biso   1.000  C
  N15      1.0000 0.16236  0.18491  0.90390  Biso   1.000  N
  C323     1.0000 0.32487  0.20689  0.97628  Biso   1.000  C
  C324     1.0000 0.32558  0.31719  0.95839  Biso   1.000  C
  C325     1.0000 0.31361  0.22450  0.75528  Biso   1.000  C
  C326     1.0000 0.40287  0.20969  0.85118  Biso   1.000  C
  H192     1.0000 0.70305  0.44620  0.24241  Biso   1.000  H
  C327     1.0000 0.81876  0.44732  0.26731  Biso   1.000  C
  H193     1.0000 0.93116  0.43340  0.27289  Biso   1.000  H
  H194     1.0000 0.57424  0.34439  0.99167  Biso   1.000  H
  C328     1.0000 0.57646  0.25580  0.02567  Biso   1.000  C
  H195     1.0000 0.60279  0.17438  0.06870  Biso   1.000  H
  H196     1.0000 0.91295  0.14769  0.24599  Biso   1.000  H
  C329     1.0000 0.00088  0.10741  0.15298  Biso   1.000  C
  C330     1.0000 0.12639  0.11248  0.82707  Biso   1.000  C
  H197     1.0000 0.20978  0.14108  0.77297  Biso   1.000  H
  C331     1.0000 0.11029  0.13540  0.88680  Biso   1.000  C
  H198     1.0000 0.16431  0.20741  0.93860  Biso   1.000  H
  H199     1.0000 0.31087  0.16670  0.96280  Biso   1.000  H
  C332     1.0000 0.36757  0.21761  0.03979  Biso   1.000  C
  H200     1.0000 0.31219  0.35100  0.93071  Biso   1.000  H
  C333     1.0000 0.36457  0.32832  0.01999  Biso   1.000  C
  H201     1.0000 0.26426  0.23400  0.73440  Biso   1.000  H
  C334     1.0000 0.36829  0.20969  0.71809  Biso   1.000  C
  H202     1.0000 0.41575  0.20969  0.89660  Biso   1.000  H
  C335     1.0000 0.45688  0.19371  0.81428  Biso   1.000  C
  H203     1.0000 0.82164  0.47690  0.30038  Biso   1.000  H
  H204     1.0000 0.52666  0.24532  0.00691  Biso   1.000  H
  C336     1.0000 0.95384  0.04490  0.13618  Biso   1.000  C
  C337     1.0000 0.04686  0.11761  0.09688  Biso   1.000  C
  C338     1.0000 0.05576  0.10638  0.21870  Biso   1.000  C
  H205     1.0000 0.10097  0.08002  0.80301  Biso   1.000  H
  C339     1.0000 0.06228  0.11202  0.92787  Biso   1.000  C
  H206     1.0000 0.38387  0.18412  0.06708  Biso   1.000  H
  C340     1.0000 0.38499  0.27792  0.06081  Biso   1.000  C
  H207     1.0000 0.37716  0.36870  0.03410  Biso   1.000  H
  C341     1.0000 0.44138  0.19478  0.74930  Biso   1.000  C
  H208     1.0000 0.35647  0.20969  0.67261  Biso   1.000  H
  H209     1.0000 0.50540  0.18179  0.83501  Biso   1.000  H
  C342     1.0000 0.99608  0.99008  0.13319  Biso   1.000  C
  C343     1.0000 0.87685  0.04071  0.12358  Biso   1.000  C
  C344     1.0000 0.12650  0.12939  0.09908  Biso   1.000  C
  N16      1.0000 0.01667  0.11332  0.03401  Biso   1.000  N
  C345     1.0000 0.09799  0.15720  0.23521  Biso   1.000  C
  C346     1.0000 0.05985  0.05762  0.26309  Biso   1.000  C
  C347     1.0000 0.07256  0.12240  0.99397  Biso   1.000  C
  C348     1.0000 0.99896  0.06791  0.89778  Biso   1.000  C
  H210     1.0000 0.41079  0.28458  0.10310  Biso   1.000  H
  H211     1.0000 0.47956  0.18561  0.72480  Biso   1.000  H
  C349     1.0000 0.95857  0.93451  0.12010  Biso   1.000  C
  H212     1.0000 0.04925  0.99138  0.14010  Biso   1.000  H
  C350     1.0000 0.83915  0.98668  0.10741  Biso   1.000  C
  H213     1.0000 0.84825  0.07671  0.12628  Biso   1.000  H
  C351     1.0000 0.14036  0.13381  0.03797  Biso   1.000  C
  H214     1.0000 0.16269  0.13340  0.13691  Biso   1.000  H
  H215     1.0000 0.96907  0.10582  0.01960  Biso   1.000  H
  H216     1.0000 0.09096  0.19222  0.20850  Biso   1.000  H
  C352     1.0000 0.15248  0.15822  0.29210  Biso   1.000  C
  H217     1.0000 0.02780  0.02338  0.25339  Biso   1.000  H
  C353     1.0000 0.11009  0.05869  0.32111  Biso   1.000  C
  C354     1.0000 0.99160  0.01020  0.93110  Biso   1.000  C
  C355     1.0000 0.95060  0.07890  0.84098  Biso   1.000  C
  H218     1.0000 0.98606  0.89739  0.12221  Biso   1.000  H
  C356     1.0000 0.87849  0.93372  0.10349  Biso   1.000  C
  H219     1.0000 0.78589  0.98621  0.09888  Biso   1.000  H
  H220     1.0000 0.18770  0.14299  0.02621  Biso   1.000  H
  H221     1.0000 0.18496  0.19231  0.30078  Biso   1.000  H
  C357     1.0000 0.15849  0.10862  0.33591  Biso   1.000  C
  H222     1.0000 0.11145  0.02580  0.35042  Biso   1.000  H
  C358     1.0000 0.93407  0.96982  0.90709  Biso   1.000  C
  F36      1.0000 0.03947  0.99329  0.98177  Biso   1.000  F
  F37      1.0000 0.95497  0.13060  0.80889  Biso   1.000  F
  C359     1.0000 0.89165  0.03619  0.81457  Biso   1.000  C
  H223     1.0000 0.85290  0.89688  0.09002  Biso   1.000  H
  H224     1.0000 0.19426  0.10922  0.37418  Biso   1.000  H
  C360     1.0000 0.88618  0.98249  0.84917  Biso   1.000  C
  F38      1.0000 0.92838  0.91560  0.93727  Biso   1.000  F
  F39      1.0000 0.84515  0.04891  0.76189  Biso   1.000  F
  F40      1.0000 0.83287  0.94071  0.82476  Biso   1.000  F
