data_image0
_cell_length_a       11.487
_cell_length_b       51.453
_cell_length_c       12.944
_cell_angle_alpha    90
_cell_angle_beta     111.7
_cell_angle_gamma    90

_symmetry_space_group_name_H-M    "P 1"
_symmetry_int_tables_number       1

loop_
  _symmetry_equiv_pos_as_xyz
  'x, y, z'

loop_
  _atom_site_label
  _atom_site_occupancy
  _atom_site_fract_x
  _atom_site_fract_y
  _atom_site_fract_z
  _atom_site_thermal_displace_type
  _atom_site_B_iso_or_equiv
  _atom_site_type_symbol
  C1       1.0000 0.51313  0.47439  0.22907  Biso   1.000  C
  C2       1.0000 0.54592  0.45731  0.16946  Biso   1.000  C
  C3       1.0000 0.40060  0.48561  0.16813  Biso   1.000  C
  H1       1.0000 0.57821  0.48810  0.25551  Biso   1.000  H
  H2       1.0000 0.50669  0.46571  0.29509  Biso   1.000  H
  H3       1.0000 0.62477  0.44911  0.21577  Biso   1.000  H
  H4       1.0000 0.55699  0.46610  0.10660  Biso   1.000  H
  H5       1.0000 0.48038  0.44409  0.14168  Biso   1.000  H
  C4       1.0000 0.42237  0.51220  0.15748  Biso   1.000  C
  H6       1.0000 0.34062  0.48330  0.20596  Biso   1.000  H
  H7       1.0000 0.36492  0.47741  0.09379  Biso   1.000  H
  C5       1.0000 0.33522  0.52821  0.16937  Biso   1.000  C
  H8       1.0000 0.50512  0.51690  0.21402  Biso   1.000  H
  H9       1.0000 0.42649  0.51521  0.08340  Biso   1.000  H
  C6       1.0000 0.33822  0.55818  0.15507  Biso   1.000  C
  H10      1.0000 0.33504  0.52510  0.24479  Biso   1.000  H
  H11      1.0000 0.25313  0.52220  0.11632  Biso   1.000  H
  C7       1.0000 0.26476  0.57171  0.20712  Biso   1.000  C
  H12      1.0000 0.42604  0.56430  0.18783  Biso   1.000  H
  H13      1.0000 0.30592  0.56240  0.07483  Biso   1.000  H
  C8       1.0000 0.27544  0.60148  0.21020  Biso   1.000  C
  H14      1.0000 0.28963  0.56529  0.28437  Biso   1.000  H
  H15      1.0000 0.17563  0.56700  0.16746  Biso   1.000  H
  C9       1.0000 0.20002  0.61378  0.26840  Biso   1.000  C
  H16      1.0000 0.36444  0.60640  0.24828  Biso   1.000  H
  H17      1.0000 0.24716  0.60821  0.13312  Biso   1.000  H
  C10      1.0000 0.20156  0.64315  0.26899  Biso   1.000  C
  H18      1.0000 0.23152  0.60760  0.34631  Biso   1.000  H
  H19      1.0000 0.11211  0.60789  0.23273  Biso   1.000  H
  C11      1.0000 0.31510  0.65532  0.35887  Biso   1.000  C
  H20      1.0000 0.12490  0.64941  0.27888  Biso   1.000  H
  H21      1.0000 0.19840  0.64931  0.19556  Biso   1.000  H
  C12      1.0000 0.32943  0.68418  0.33268  Biso   1.000  C
  H22      1.0000 0.39159  0.64570  0.36402  Biso   1.000  H
  H23      1.0000 0.30554  0.65399  0.43162  Biso   1.000  H
  C13      1.0000 0.36479  0.68643  0.22991  Biso   1.000  C
  H24      1.0000 0.24467  0.69230  0.31247  Biso   1.000  H
  C14      1.0000 0.41741  0.69940  0.43121  Biso   1.000  C
  C15      1.0000 0.46719  0.67316  0.22433  Biso   1.000  C
  C16      1.0000 0.29143  0.70054  0.13636  Biso   1.000  C
  C17      1.0000 0.51943  0.68806  0.51311  Biso   1.000  C
  C18      1.0000 0.39532  0.72561  0.44526  Biso   1.000  C
  C19      1.0000 0.50025  0.67298  0.12963  Biso   1.000  C
  H25      1.0000 0.51809  0.66360  0.28778  Biso   1.000  H
  O1       1.0000 0.19331  0.71442  0.14617  Biso   1.000  O
  C20      1.0000 0.32142  0.70087  0.04141  Biso   1.000  C
  H26      1.0000 0.53611  0.67020  0.50529  Biso   1.000  H
  C21      1.0000 0.59976  0.70144  0.60707  Biso   1.000  C
  C22      1.0000 0.47148  0.73933  0.53780  Biso   1.000  C
  O2       1.0000 0.30007  0.73957  0.36918  Biso   1.000  O
  C23      1.0000 0.61224  0.65730  0.12846  Biso   1.000  C
  C24      1.0000 0.42412  0.68750  0.03966  Biso   1.000  C
  C25      1.0000 0.11401  0.72837  0.04839  Biso   1.000  C
  H27      1.0000 0.27065  0.71040  0.97763  Biso   1.000  H
  C26      1.0000 0.56986  0.72721  0.61887  Biso   1.000  C
  C27      1.0000 0.71403  0.68861  0.69288  Biso   1.000  C
  H28      1.0000 0.45573  0.75720  0.54512  Biso   1.000  H
  H29      1.0000 0.26204  0.73061  0.32303  Biso   1.000  H
  C28      1.0000 0.73438  0.67028  0.20055  Biso   1.000  C
  H30      1.0000 0.60949  0.65790  0.05039  Biso   1.000  H
  C29      1.0000 0.60306  0.62873  0.15574  Biso   1.000  C
  O3       1.0000 0.44839  0.68943  0.94288  Biso   1.000  O
  H31      1.0000 0.04736  0.73729  0.06477  Biso   1.000  H
  H32      1.0000 0.16425  0.74120  0.02711  Biso   1.000  H
  H33      1.0000 0.07646  0.71611  0.98711  Biso   1.000  H
  O4       1.0000 0.64763  0.73992  0.71466  Biso   1.000  O
  H34      1.0000 0.72669  0.69730  0.76546  Biso   1.000  H
  C30      1.0000 0.83288  0.69325  0.67076  Biso   1.000  C
  C31      1.0000 0.69732  0.65946  0.71042  Biso   1.000  C
  C32      1.0000 0.80761  0.66113  0.30632  Biso   1.000  C
  C33      1.0000 0.78069  0.69156  0.16231  Biso   1.000  C
  H35      1.0000 0.51896  0.62220  0.10892  Biso   1.000  H
  H36      1.0000 0.61099  0.62731  0.23431  Biso   1.000  H
  C34      1.0000 0.70224  0.61143  0.13761  Biso   1.000  C
  H37      1.0000 0.51997  0.68950  0.96591  Biso   1.000  H
  C35      1.0000 0.60050  0.76270  0.74800  Biso   1.000  C
  C36      1.0000 0.85949  0.67802  0.59318  Biso   1.000  C
  C37      1.0000 0.92193  0.71160  0.72697  Biso   1.000  C
  H38      1.0000 0.67593  0.65030  0.63841  Biso   1.000  H
  H39      1.0000 0.77791  0.65230  0.76197  Biso   1.000  H
  C38      1.0000 0.59611  0.65392  0.75690  Biso   1.000  C
  C39      1.0000 0.92092  0.67207  0.37392  Biso   1.000  C
  H40      1.0000 0.77813  0.64640  0.33376  Biso   1.000  H
  O5       1.0000 0.70519  0.70060  0.05820  Biso   1.000  O
  C40      1.0000 0.89176  0.70322  0.22641  Biso   1.000  C
  H41      1.0000 0.68958  0.61180  0.05770  Biso   1.000  H
  H42      1.0000 0.78598  0.61880  0.17960  Biso   1.000  H
  C41      1.0000 0.70009  0.58329  0.17320  Biso   1.000  C
  H43      1.0000 0.66392  0.76971  0.81602  Biso   1.000  H
  H44      1.0000 0.52461  0.75840  0.76205  Biso   1.000  H
  H45      1.0000 0.58045  0.77580  0.68880  Biso   1.000  H
  H46      1.0000 0.79796  0.66591  0.55061  Biso   1.000  H
  C42      1.0000 0.97134  0.67949  0.57456  Biso   1.000  C
  O6       1.0000 0.90441  0.72880  0.80296  Biso   1.000  O
  C43      1.0000 0.03567  0.71401  0.71391  Biso   1.000  C
  H47      1.0000 0.51337  0.65850  0.70061  Biso   1.000  H
  H48      1.0000 0.61044  0.66490  0.82325  Biso   1.000  H
  C44      1.0000 0.59547  0.62525  0.78900  Biso   1.000  C
  C45      1.0000 0.96158  0.69331  0.33068  Biso   1.000  C
  C46      1.0000 0.99371  0.66189  0.49033  Biso   1.000  C
  C47      1.0000 0.74681  0.72303  0.01497  Biso   1.000  C
  H49      1.0000 0.92060  0.71811  0.19931  Biso   1.000  H
  H50      1.0000 0.71230  0.58290  0.25285  Biso   1.000  H
  H51      1.0000 0.61683  0.57581  0.13071  Biso   1.000  H
  C48      1.0000 0.79981  0.56659  0.15532  Biso   1.000  C
  C49      1.0000 0.05932  0.69778  0.63800  Biso   1.000  C
  H52      1.0000 0.83005  0.73071  0.78600  Biso   1.000  H
  H53      1.0000 0.09581  0.72641  0.75565  Biso   1.000  H
  H54      1.0000 0.67630  0.62099  0.84886  Biso   1.000  H
  H55      1.0000 0.58775  0.61431  0.72389  Biso   1.000  H
  C50      1.0000 0.48865  0.61847  0.82849  Biso   1.000  C
  O7       1.0000 0.07355  0.70593  0.38589  Biso   1.000  O
  C51      1.0000 0.97228  0.63316  0.51036  Biso   1.000  C
  H56      1.0000 0.08458  0.66360  0.50222  Biso   1.000  H
  H57      1.0000 0.82759  0.71930  0.00890  Biso   1.000  H
  H58      1.0000 0.75626  0.73780  0.06544  Biso   1.000  H
  H59      1.0000 0.68499  0.72730  0.94138  Biso   1.000  H
  H60      1.0000 0.78676  0.56691  0.07533  Biso   1.000  H
  H61      1.0000 0.88280  0.57441  0.19656  Biso   1.000  H
  C52      1.0000 0.80175  0.53867  0.19132  Biso   1.000  C
  O8       1.0000 0.16890  0.69885  0.61580  Biso   1.000  O
  H62      1.0000 0.50905  0.60201  0.87140  Biso   1.000  H
  H63      1.0000 0.48120  0.63231  0.87871  Biso   1.000  H
  C53      1.0000 0.36673  0.61549  0.73478  Biso   1.000  C
  H64      1.0000 0.09705  0.70210  0.45399  Biso   1.000  H
  H65      1.0000 0.88102  0.62980  0.48209  Biso   1.000  H
  H66      1.0000 0.00557  0.62990  0.59152  Biso   1.000  H
  C54      1.0000 0.03322  0.61411  0.45582  Biso   1.000  C
  H67      1.0000 0.71849  0.53080  0.15091  Biso   1.000  H
  H68      1.0000 0.81671  0.53820  0.27173  Biso   1.000  H
  C55      1.0000 0.90095  0.52234  0.17054  Biso   1.000  C
  C56      1.0000 0.27634  0.70985  0.69312  Biso   1.000  C
  H69      1.0000 0.37354  0.60140  0.68531  Biso   1.000  H
  H70      1.0000 0.34677  0.63180  0.69105  Biso   1.000  H
  C57      1.0000 0.25941  0.60914  0.77494  Biso   1.000  C
  H71      1.0000 0.99476  0.61641  0.37417  Biso   1.000  H
  H72      1.0000 0.12327  0.61851  0.47910  Biso   1.000  H
  C58      1.0000 0.02181  0.58564  0.48318  Biso   1.000  C
  H73      1.0000 0.88549  0.52281  0.08997  Biso   1.000  H
  H74      1.0000 0.98405  0.53031  0.21037  Biso   1.000  H
  C59      1.0000 0.90521  0.49428  0.20646  Biso   1.000  C
  H75      1.0000 0.34463  0.70890  0.66502  Biso   1.000  H
  H76      1.0000 0.30013  0.70031  0.76339  Biso   1.000  H
  H77      1.0000 0.25989  0.72800  0.70526  Biso   1.000  H
  H78      1.0000 0.28640  0.59480  0.82990  Biso   1.000  H
  H79      1.0000 0.18629  0.60290  0.71100  Biso   1.000  H
  C60      1.0000 0.21882  0.63262  0.82857  Biso   1.000  C
  H80      1.0000 0.93547  0.57960  0.44060  Biso   1.000  H
  H81      1.0000 0.03662  0.58411  0.56325  Biso   1.000  H
  C61      1.0000 0.11324  0.56834  0.45648  Biso   1.000  C
  H82      1.0000 0.92025  0.49381  0.28686  Biso   1.000  H
  H83      1.0000 0.82245  0.48621  0.16621  Biso   1.000  H
  C62      1.0000 0.00475  0.47830  0.18609  Biso   1.000  C
  H84      1.0000 0.29195  0.63911  0.89210  Biso   1.000  H
  H85      1.0000 0.18937  0.64680  0.77336  Biso   1.000  H
  C63      1.0000 0.11634  0.62543  0.86865  Biso   1.000  C
  H86      1.0000 0.19856  0.57559  0.49307  Biso   1.000  H
  H87      1.0000 0.09292  0.56881  0.37533  Biso   1.000  H
  C64      1.0000 0.11439  0.53975  0.49249  Biso   1.000  C
  H88      1.0000 0.98971  0.47881  0.10568  Biso   1.000  H
  H89      1.0000 0.08746  0.48641  0.22641  Biso   1.000  H
  C65      1.0000 0.00919  0.45031  0.22159  Biso   1.000  C
  H90      1.0000 0.14670  0.61130  0.92419  Biso   1.000  H
  H91      1.0000 0.04448  0.61851  0.80504  Biso   1.000  H
  C66      1.0000 0.07082  0.64758  0.92029  Biso   1.000  C
  H92      1.0000 0.12953  0.53921  0.57289  Biso   1.000  H
  H93      1.0000 0.03115  0.53200  0.45191  Biso   1.000  H
  C67      1.0000 0.21344  0.52353  0.47112  Biso   1.000  C
  H94      1.0000 0.93024  0.44170  0.17461  Biso   1.000  H
  H95      1.0000 0.01311  0.44981  0.29933  Biso   1.000  H
  C68      1.0000 0.11973  0.43445  0.21486  Biso   1.000  C
  H96      1.0000 0.03293  0.66101  0.86300  Biso   1.000  H
  H97      1.0000 0.14352  0.65551  0.97965  Biso   1.000  H
  C69      1.0000 0.97434  0.63920  0.96976  Biso   1.000  C
  H98      1.0000 0.29642  0.53161  0.51045  Biso   1.000  H
  H99      1.0000 0.19742  0.52390  0.39046  Biso   1.000  H
  C70      1.0000 0.21829  0.49540  0.50762  Biso   1.000  C
  H100     1.0000 0.19936  0.44330  0.25867  Biso   1.000  H
  H101     1.0000 0.12040  0.41700  0.24762  Biso   1.000  H
  C71      1.0000 0.11073  0.43166  0.10111  Biso   1.000  C
  H102     1.0000 0.90559  0.62970  0.91255  Biso   1.000  H
  C72      1.0000 0.92061  0.66159  0.00984  Biso   1.000  C
  H103     1.0000 0.01472  0.62719  0.03262  Biso   1.000  H
  H104     1.0000 0.23265  0.49500  0.58786  Biso   1.000  H
  H105     1.0000 0.13578  0.48730  0.46713  Biso   1.000  H
  C73      1.0000 0.31865  0.47939  0.48816  Biso   1.000  C
  H106     1.0000 0.18321  0.42190  0.09936  Biso   1.000  H
  H107     1.0000 0.10921  0.44890  0.06843  Biso   1.000  H
  H108     1.0000 0.03363  0.42231  0.05837  Biso   1.000  H
  H109     1.0000 0.87724  0.67320  0.94731  Biso   1.000  H
  H110     1.0000 0.86114  0.65520  0.04218  Biso   1.000  H
  H111     1.0000 0.98829  0.67110  0.06654  Biso   1.000  H
  H112     1.0000 0.40152  0.48701  0.53182  Biso   1.000  H
  H113     1.0000 0.30683  0.48050  0.40859  Biso   1.000  H
  C74      1.0000 0.31881  0.45090  0.51968  Biso   1.000  C
  H114     1.0000 0.23493  0.44349  0.47777  Biso   1.000  H
  H115     1.0000 0.33293  0.44981  0.59975  Biso   1.000  H
  C75      1.0000 0.41692  0.43416  0.49773  Biso   1.000  C
  H116     1.0000 0.40711  0.43611  0.41882  Biso   1.000  H
  H117     1.0000 0.50157  0.44050  0.54421  Biso   1.000  H
  C76      1.0000 0.40701  0.40575  0.52242  Biso   1.000  C
  H118     1.0000 0.47183  0.39590  0.50687  Biso   1.000  H
  H119     1.0000 0.32427  0.39920  0.47553  Biso   1.000  H
  H120     1.0000 0.41864  0.40371  0.60091  Biso   1.000  H
  C77      1.0000 0.48693  0.52561  0.77087  Biso   1.000  C
  C78      1.0000 0.59941  0.51441  0.83190  Biso   1.000  C
  H121     1.0000 0.42180  0.51190  0.74451  Biso   1.000  H
  H122     1.0000 0.49329  0.53429  0.70485  Biso   1.000  H
  C79      1.0000 0.45414  0.54271  0.83049  Biso   1.000  C
  C80      1.0000 0.57761  0.48780  0.84246  Biso   1.000  C
  H123     1.0000 0.65944  0.51670  0.79398  Biso   1.000  H
  H124     1.0000 0.63514  0.52259  0.90615  Biso   1.000  H
  H125     1.0000 0.37521  0.55091  0.78417  Biso   1.000  H
  H126     1.0000 0.44298  0.53390  0.89335  Biso   1.000  H
  H127     1.0000 0.51960  0.55591  0.85826  Biso   1.000  H
  C81      1.0000 0.66485  0.47181  0.83057  Biso   1.000  C
  H128     1.0000 0.49489  0.48310  0.78600  Biso   1.000  H
  H129     1.0000 0.57348  0.48481  0.91654  Biso   1.000  H
  C82      1.0000 0.66184  0.44184  0.84487  Biso   1.000  C
  H130     1.0000 0.66503  0.47490  0.75515  Biso   1.000  H
  H131     1.0000 0.74697  0.47780  0.88370  Biso   1.000  H
  C83      1.0000 0.73534  0.42829  0.79290  Biso   1.000  C
  H132     1.0000 0.57405  0.43570  0.81219  Biso   1.000  H
  H133     1.0000 0.69417  0.43760  0.92519  Biso   1.000  H
  C84      1.0000 0.72462  0.39854  0.78974  Biso   1.000  C
  H134     1.0000 0.71043  0.43471  0.71557  Biso   1.000  H
  H135     1.0000 0.82443  0.43300  0.83248  Biso   1.000  H
  C85      1.0000 0.80008  0.38622  0.73162  Biso   1.000  C
  H136     1.0000 0.63563  0.39360  0.75166  Biso   1.000  H
  H137     1.0000 0.75294  0.39179  0.86691  Biso   1.000  H
  C86      1.0000 0.79841  0.35687  0.73096  Biso   1.000  C
  H138     1.0000 0.76858  0.39240  0.65371  Biso   1.000  H
  H139     1.0000 0.88790  0.39211  0.76729  Biso   1.000  H
  C87      1.0000 0.68496  0.34468  0.64107  Biso   1.000  C
  H140     1.0000 0.87516  0.35059  0.72106  Biso   1.000  H
  H141     1.0000 0.80167  0.35071  0.80438  Biso   1.000  H
  C88      1.0000 0.67063  0.31582  0.66727  Biso   1.000  C
  H142     1.0000 0.60842  0.35430  0.63600  Biso   1.000  H
  H143     1.0000 0.69456  0.34601  0.56840  Biso   1.000  H
  C89      1.0000 0.58260  0.30060  0.56882  Biso   1.000  C
  C90      1.0000 0.63522  0.31359  0.77012  Biso   1.000  C
  H144     1.0000 0.75531  0.30770  0.68747  Biso   1.000  H
  C91      1.0000 0.48066  0.31194  0.48692  Biso   1.000  C
  C92      1.0000 0.60475  0.27439  0.55468  Biso   1.000  C
  C93      1.0000 0.53282  0.32684  0.77569  Biso   1.000  C
  C94      1.0000 0.70864  0.29948  0.86358  Biso   1.000  C
  C95      1.0000 0.40031  0.29856  0.39288  Biso   1.000  C
  H145     1.0000 0.46386  0.32980  0.49465  Biso   1.000  H
  C96      1.0000 0.52853  0.26067  0.46222  Biso   1.000  C
  O9       1.0000 0.69991  0.26043  0.63076  Biso   1.000  O
  C97      1.0000 0.49985  0.32702  0.87040  Biso   1.000  C
  H146     1.0000 0.48189  0.33640  0.71217  Biso   1.000  H
  O10      1.0000 0.80675  0.28560  0.85377  Biso   1.000  O
  C98      1.0000 0.67868  0.29913  0.95862  Biso   1.000  C
  C99      1.0000 0.43021  0.27279  0.38107  Biso   1.000  C
  C100     1.0000 0.28603  0.31139  0.30707  Biso   1.000  C
  H147     1.0000 0.54428  0.24280  0.45490  Biso   1.000  H
  H148     1.0000 0.73806  0.26939  0.67699  Biso   1.000  H
  C101     1.0000 0.38782  0.34270  0.87148  Biso   1.000  C
  C102     1.0000 0.57595  0.31252  0.96028  Biso   1.000  C
  C103     1.0000 0.88606  0.27163  0.95155  Biso   1.000  C
  H149     1.0000 0.72936  0.28960  0.02239  Biso   1.000  H
  O11      1.0000 0.35243  0.26008  0.28528  Biso   1.000  O
  H150     1.0000 0.27328  0.30270  0.23448  Biso   1.000  H
  C104     1.0000 0.16710  0.30675  0.32918  Biso   1.000  C
  C105     1.0000 0.30269  0.34054  0.28961  Biso   1.000  C
  C106     1.0000 0.26559  0.32974  0.79939  Biso   1.000  C
  H151     1.0000 0.39049  0.34210  0.94955  Biso   1.000  H
  C107     1.0000 0.39704  0.37127  0.84429  Biso   1.000  C
  O12      1.0000 0.55168  0.31057  0.05707  Biso   1.000  O
  H152     1.0000 0.95262  0.26271  0.93517  Biso   1.000  H
  H153     1.0000 0.83581  0.25880  0.97284  Biso   1.000  H
  H154     1.0000 0.92360  0.28391  0.01283  Biso   1.000  H
  C108     1.0000 0.39951  0.23730  0.25202  Biso   1.000  C
  C109     1.0000 0.14049  0.32198  0.40676  Biso   1.000  C
  C110     1.0000 0.07813  0.28842  0.27298  Biso   1.000  C
  H155     1.0000 0.32416  0.34970  0.36161  Biso   1.000  H
  H156     1.0000 0.22207  0.34770  0.23797  Biso   1.000  H
  C111     1.0000 0.40390  0.34608  0.24313  Biso   1.000  C
  C112     1.0000 0.19240  0.33887  0.69371  Biso   1.000  C
  C113     1.0000 0.21932  0.30844  0.83772  Biso   1.000  C
  H157     1.0000 0.48114  0.37780  0.89110  Biso   1.000  H
  H158     1.0000 0.38902  0.37271  0.76571  Biso   1.000  H
  C114     1.0000 0.29786  0.38859  0.86242  Biso   1.000  C
  H159     1.0000 0.48001  0.31050  0.03403  Biso   1.000  H
  H160     1.0000 0.33609  0.23031  0.18401  Biso   1.000  H
  H161     1.0000 0.47545  0.24160  0.23789  Biso   1.000  H
  H162     1.0000 0.41965  0.22420  0.31122  Biso   1.000  H
  H163     1.0000 0.20213  0.33411  0.44942  Biso   1.000  H
  C115     1.0000 0.02872  0.32051  0.42539  Biso   1.000  C
  O13      1.0000 0.09556  0.27122  0.19698  Biso   1.000  O
  C116     1.0000 0.96442  0.28601  0.28611  Biso   1.000  C
  H164     1.0000 0.48673  0.34150  0.29942  Biso   1.000  H
  H165     1.0000 0.38963  0.33510  0.17669  Biso   1.000  H
  C117     1.0000 0.40463  0.37477  0.21103  Biso   1.000  C
  C118     1.0000 0.07909  0.32793  0.62611  Biso   1.000  C
  H166     1.0000 0.22193  0.35360  0.66618  Biso   1.000  H
  C119     1.0000 0.10834  0.29678  0.77361  Biso   1.000  C
  O14      1.0000 0.29478  0.29940  0.94174  Biso   1.000  O
  H167     1.0000 0.31040  0.38820  0.94224  Biso   1.000  H
  H168     1.0000 0.21399  0.38120  0.82034  Biso   1.000  H
  C120     1.0000 0.29989  0.41671  0.82674  Biso   1.000  C
  C121     1.0000 0.00630  0.33811  0.50970  Biso   1.000  C
  C122     1.0000 0.94069  0.30222  0.36203  Biso   1.000  C
  H169     1.0000 0.17005  0.26929  0.21402  Biso   1.000  H
  H170     1.0000 0.90417  0.27361  0.24429  Biso   1.000  H
  H171     1.0000 0.32368  0.37901  0.15108  Biso   1.000  H
  H172     1.0000 0.41231  0.38569  0.27605  Biso   1.000  H
  C123     1.0000 0.51144  0.38153  0.17154  Biso   1.000  C
  C124     1.0000 0.03840  0.30671  0.66926  Biso   1.000  C
  H173     1.0000 0.07942  0.28191  0.80072  Biso   1.000  H
  C125     1.0000 0.25325  0.27697  0.98498  Biso   1.000  C
  H174     1.0000 0.28777  0.41710  0.74709  Biso   1.000  H
  H175     1.0000 0.38326  0.42419  0.86932  Biso   1.000  H
  C126     1.0000 0.20021  0.43341  0.84470  Biso   1.000  C
  C127     1.0000 0.02769  0.36686  0.48958  Biso   1.000  C
  H176     1.0000 0.91551  0.33640  0.49781  Biso   1.000  H
  O15      1.0000 0.83111  0.30117  0.38423  Biso   1.000  O
  H177     1.0000 0.49104  0.39799  0.12863  Biso   1.000  H
  H178     1.0000 0.51881  0.36769  0.12131  Biso   1.000  H
  C128     1.0000 0.63333  0.38451  0.26516  Biso   1.000  C
  O16      1.0000 0.92651  0.29407  0.61405  Biso   1.000  O
  H179     1.0000 0.17238  0.28070  0.99105  Biso   1.000  H
  H180     1.0000 0.24384  0.26220  0.93459  Biso   1.000  H
  H181     1.0000 0.31508  0.27270  0.05856  Biso   1.000  H
  H182     1.0000 0.21334  0.43309  0.92469  Biso   1.000  H
  H183     1.0000 0.11726  0.42559  0.80338  Biso   1.000  H
  C129     1.0000 0.19835  0.46133  0.80870  Biso   1.000  C
  H184     1.0000 0.11895  0.37020  0.51785  Biso   1.000  H
  H185     1.0000 0.99453  0.37010  0.40851  Biso   1.000  H
  C130     1.0000 0.96679  0.38589  0.54421  Biso   1.000  C
  C131     1.0000 0.72367  0.29017  0.30690  Biso   1.000  C
  H186     1.0000 0.62655  0.39860  0.31472  Biso   1.000  H
  H187     1.0000 0.65321  0.36820  0.30890  Biso   1.000  H
  C132     1.0000 0.74065  0.39086  0.22500  Biso   1.000  C
  H188     1.0000 0.90301  0.29790  0.54595  Biso   1.000  H
  H189     1.0000 0.28152  0.46920  0.84911  Biso   1.000  H
  H190     1.0000 0.18331  0.46180  0.72830  Biso   1.000  H
  C133     1.0000 0.09915  0.47766  0.82949  Biso   1.000  C
  H191     1.0000 0.00531  0.38359  0.62577  Biso   1.000  H
  H192     1.0000 0.87683  0.38149  0.52092  Biso   1.000  H
  C134     1.0000 0.97817  0.41436  0.51677  Biso   1.000  C
  H193     1.0000 0.65538  0.29110  0.33500  Biso   1.000  H
  H194     1.0000 0.69985  0.29971  0.23656  Biso   1.000  H
  H195     1.0000 0.74008  0.27200  0.29468  Biso   1.000  H
  H196     1.0000 0.71361  0.40520  0.17012  Biso   1.000  H
  H197     1.0000 0.81373  0.39710  0.28902  Biso   1.000  H
  C135     1.0000 0.78125  0.36738  0.17137  Biso   1.000  C
  H198     1.0000 0.11449  0.47719  0.90998  Biso   1.000  H
  H199     1.0000 0.01601  0.46971  0.78958  Biso   1.000  H
  C136     1.0000 0.09486  0.50572  0.79349  Biso   1.000  C
  H200     1.0000 0.06463  0.42040  0.55942  Biso   1.000  H
  H201     1.0000 0.96344  0.41589  0.43670  Biso   1.000  H
  C137     1.0000 0.88683  0.43166  0.54346  Biso   1.000  C
  H202     1.0000 0.70815  0.36089  0.10793  Biso   1.000  H
  H203     1.0000 0.81060  0.35320  0.22658  Biso   1.000  H
  C138     1.0000 0.88373  0.37457  0.13129  Biso   1.000  C
  H204     1.0000 0.07981  0.50621  0.71308  Biso   1.000  H
  H205     1.0000 0.17765  0.51381  0.83381  Biso   1.000  H
  C139     1.0000 0.99531  0.52170  0.81386  Biso   1.000  C
  H206     1.0000 0.80151  0.42441  0.50687  Biso   1.000  H
  H207     1.0000 0.90709  0.43121  0.62469  Biso   1.000  H
  C140     1.0000 0.88558  0.46025  0.50745  Biso   1.000  C
  H208     1.0000 0.85331  0.38870  0.07583  Biso   1.000  H
  H209     1.0000 0.95550  0.38149  0.19490  Biso   1.000  H
  C141     1.0000 0.92919  0.35242  0.07974  Biso   1.000  C
  H210     1.0000 0.01035  0.52119  0.89426  Biso   1.000  H
  H211     1.0000 0.91264  0.51359  0.77361  Biso   1.000  H
  C142     1.0000 0.99079  0.54969  0.77835  Biso   1.000  C
  H212     1.0000 0.87045  0.46081  0.42705  Biso   1.000  H
  H213     1.0000 0.96895  0.46800  0.54811  Biso   1.000  H
  C143     1.0000 0.78666  0.47647  0.52891  Biso   1.000  C
  H214     1.0000 0.96716  0.33901  0.13703  Biso   1.000  H
  H215     1.0000 0.85654  0.34451  0.02029  Biso   1.000  H
  C144     1.0000 0.02572  0.36080  0.03018  Biso   1.000  C
  H216     1.0000 0.06986  0.55830  0.82541  Biso   1.000  H
  H217     1.0000 0.98690  0.55021  0.70069  Biso   1.000  H
  C145     1.0000 0.88034  0.56555  0.78509  Biso   1.000  C
  H218     1.0000 0.70364  0.46841  0.48949  Biso   1.000  H
  H219     1.0000 0.80264  0.47610  0.60948  Biso   1.000  H
  C146     1.0000 0.78181  0.50460  0.49240  Biso   1.000  C
  H220     1.0000 0.98525  0.37281  0.96732  Biso   1.000  H
  C147     1.0000 0.07936  0.33841  0.99011  Biso   1.000  C
  H221     1.0000 0.09439  0.37030  0.08739  Biso   1.000  H
  H222     1.0000 0.80071  0.55670  0.74127  Biso   1.000  H
  H223     1.0000 0.87961  0.58300  0.75241  Biso   1.000  H
  C148     1.0000 0.88937  0.56834  0.89892  Biso   1.000  C
  H224     1.0000 0.76741  0.50500  0.41208  Biso   1.000  H
  H225     1.0000 0.86432  0.51270  0.53290  Biso   1.000  H
  C149     1.0000 0.68141  0.52063  0.51178  Biso   1.000  C
  H226     1.0000 0.13887  0.34480  0.95784  Biso   1.000  H
  H227     1.0000 0.01177  0.32890  0.93340  Biso   1.000  H
  H228     1.0000 0.12286  0.32680  0.05272  Biso   1.000  H
  H229     1.0000 0.81685  0.57810  0.90058  Biso   1.000  H
  H230     1.0000 0.89080  0.55110  0.93159  Biso   1.000  H
  H231     1.0000 0.96643  0.57771  0.94157  Biso   1.000  H
  H232     1.0000 0.59849  0.51299  0.46821  Biso   1.000  H
  H233     1.0000 0.69315  0.51950  0.59135  Biso   1.000  H
  C150     1.0000 0.68117  0.54910  0.48027  Biso   1.000  C
  H234     1.0000 0.76514  0.55651  0.52217  Biso   1.000  H
  H235     1.0000 0.66713  0.55021  0.40019  Biso   1.000  H
  C151     1.0000 0.58309  0.56584  0.50230  Biso   1.000  C
  H236     1.0000 0.59290  0.56389  0.58121  Biso   1.000  H
  H237     1.0000 0.49852  0.55950  0.45582  Biso   1.000  H
  C152     1.0000 0.59300  0.59425  0.47760  Biso   1.000  C
  H238     1.0000 0.52823  0.60410  0.49307  Biso   1.000  H
  H239     1.0000 0.67583  0.60080  0.52450  Biso   1.000  H
  H240     1.0000 0.58145  0.59631  0.39911  Biso   1.000  H
  C153     1.0000 0.74683  0.77698  0.51502  Biso   1.000  C
  O17      1.0000 0.70518  0.79941  0.55818  Biso   1.000  O
  H241     1.0000 0.68504  0.77271  0.44152  Biso   1.000  H
  H242     1.0000 0.82758  0.78071  0.50887  Biso   1.000  H
  H243     1.0000 0.75625  0.76221  0.56541  Biso   1.000  H
  C154     1.0000 0.78077  0.80843  0.66228  Biso   1.000  C
  C155     1.0000 0.73441  0.82973  0.70061  Biso   1.000  C
  C156     1.0000 0.89175  0.79679  0.72638  Biso   1.000  C
  C157     1.0000 0.61227  0.84271  0.62852  Biso   1.000  C
  C158     1.0000 0.80760  0.83888  0.80629  Biso   1.000  C
  C159     1.0000 0.96165  0.80670  0.83065  Biso   1.000  C
  H244     1.0000 0.92067  0.78190  0.69928  Biso   1.000  H
  C160     1.0000 0.50024  0.82701  0.62960  Biso   1.000  C
  H245     1.0000 0.60947  0.84211  0.55036  Biso   1.000  H
  C161     1.0000 0.60305  0.87128  0.65571  Biso   1.000  C
  C162     1.0000 0.92091  0.82794  0.87389  Biso   1.000  C
  H246     1.0000 0.77815  0.85359  0.83381  Biso   1.000  H
  O18      1.0000 0.07354  0.79406  0.88586  Biso   1.000  O
  C163     1.0000 0.46727  0.82685  0.72431  Biso   1.000  C
  C164     1.0000 0.42414  0.81251  0.53972  Biso   1.000  C
  H247     1.0000 0.51895  0.87781  0.60890  Biso   1.000  H
  H248     1.0000 0.61106  0.87270  0.73428  Biso   1.000  H
  C165     1.0000 0.70223  0.88858  0.63758  Biso   1.000  C
  C166     1.0000 0.99378  0.83810  0.99030  Biso   1.000  C
  H249     1.0000 0.09704  0.79791  0.95396  Biso   1.000  H
  C167     1.0000 0.36478  0.81358  0.72988  Biso   1.000  C
  H250     1.0000 0.51808  0.83639  0.78775  Biso   1.000  H
  C168     1.0000 0.32141  0.79914  0.54138  Biso   1.000  C
  O19      1.0000 0.44844  0.81058  0.44301  Biso   1.000  O
  H251     1.0000 0.68965  0.88821  0.55768  Biso   1.000  H
  H252     1.0000 0.78606  0.88121  0.67957  Biso   1.000  H
  C169     1.0000 0.70008  0.91672  0.67317  Biso   1.000  C
  C170     1.0000 0.97140  0.82050  0.07469  Biso   1.000  C
  C171     1.0000 0.97239  0.86685  0.01042  Biso   1.000  C
  H253     1.0000 0.08452  0.83639  0.00227  Biso   1.000  H
  C172     1.0000 0.29145  0.79947  0.63642  Biso   1.000  C
  C173     1.0000 0.32942  0.81583  0.83265  Biso   1.000  C
  H254     1.0000 0.27067  0.78959  0.47769  Biso   1.000  H
  H255     1.0000 0.51999  0.81051  0.46596  Biso   1.000  H
  H256     1.0000 0.71232  0.91711  0.75291  Biso   1.000  H
  H257     1.0000 0.61682  0.92420  0.63068  Biso   1.000  H
  C174     1.0000 0.79979  0.93340  0.65529  Biso   1.000  C
  C175     1.0000 0.85960  0.82199  0.09323  Biso   1.000  C
  C176     1.0000 0.05926  0.80223  0.13805  Biso   1.000  C
  H258     1.0000 0.88101  0.87021  0.98207  Biso   1.000  H
  C177     1.0000 0.03320  0.88588  0.95579  Biso   1.000  C
  H259     1.0000 0.00551  0.87010  0.09157  Biso   1.000  H
  O20      1.0000 0.19330  0.78559  0.64615  Biso   1.000  O
  H260     1.0000 0.24474  0.80771  0.81244  Biso   1.000  H
  C178     1.0000 0.41740  0.80061  0.93118  Biso   1.000  C
  C179     1.0000 0.31509  0.84469  0.85884  Biso   1.000  C
  H261     1.0000 0.78675  0.93310  0.57530  Biso   1.000  H
  H262     1.0000 0.88283  0.92560  0.69662  Biso   1.000  H
  C180     1.0000 0.80174  0.96134  0.69130  Biso   1.000  C
  C181     1.0000 0.83302  0.80674  0.17090  Biso   1.000  C
  H263     1.0000 0.79799  0.83410  0.05066  Biso   1.000  H
  C182     1.0000 0.03561  0.78600  0.21397  Biso   1.000  C
  O21      1.0000 0.16893  0.80116  0.11585  Biso   1.000  O
  H264     1.0000 0.99474  0.88360  0.87414  Biso   1.000  H
  H265     1.0000 0.12326  0.88150  0.97907  Biso   1.000  H
  C183     1.0000 0.02179  0.91437  0.98315  Biso   1.000  C
  C184     1.0000 0.11400  0.77162  0.54836  Biso   1.000  C
  C185     1.0000 0.39534  0.77440  0.94531  Biso   1.000  C
  C186     1.0000 0.51946  0.81193  0.01316  Biso   1.000  C
  H266     1.0000 0.39167  0.85429  0.86399  Biso   1.000  H
  H267     1.0000 0.30553  0.84600  0.93159  Biso   1.000  H
  C187     1.0000 0.20164  0.85686  0.76896  Biso   1.000  C
  H268     1.0000 0.71856  0.96920  0.65089  Biso   1.000  H
  H269     1.0000 0.81678  0.96181  0.77170  Biso   1.000  H
  C188     1.0000 0.90094  0.97767  0.67051  Biso   1.000  C
  C189     1.0000 0.71406  0.81140  0.19293  Biso   1.000  C
  C190     1.0000 0.92196  0.78841  0.22702  Biso   1.000  C
  H270     1.0000 0.09578  0.77360  0.25579  Biso   1.000  H
  C191     1.0000 0.27627  0.79016  0.19318  Biso   1.000  C
  H271     1.0000 0.93546  0.92041  0.94057  Biso   1.000  H
  C192     1.0000 0.11322  0.93167  0.95646  Biso   1.000  C
  H272     1.0000 0.03659  0.91590  0.06338  Biso   1.000  H
  H273     1.0000 0.04747  0.76270  0.56483  Biso   1.000  H
  H274     1.0000 0.07648  0.78390  0.48717  Biso   1.000  H
  H275     1.0000 0.16424  0.75881  0.52708  Biso   1.000  H
  O22      1.0000 0.30014  0.76044  0.86915  Biso   1.000  O
  C193     1.0000 0.47159  0.76066  0.03786  Biso   1.000  C
  H276     1.0000 0.53614  0.82981  0.00535  Biso   1.000  H
  C194     1.0000 0.59978  0.79855  0.10712  Biso   1.000  C
  H277     1.0000 0.12489  0.85060  0.77885  Biso   1.000  H
  H278     1.0000 0.19842  0.85070  0.69562  Biso   1.000  H
  C195     1.0000 0.20000  0.88623  0.76837  Biso   1.000  C
  H279     1.0000 0.88551  0.97720  0.59002  Biso   1.000  H
  H280     1.0000 0.98408  0.96970  0.71042  Biso   1.000  H
  C196     1.0000 0.90523  0.00573  0.70651  Biso   1.000  C
  H281     1.0000 0.72680  0.80269  0.26552  Biso   1.000  H
  C197     1.0000 0.69734  0.84053  0.21047  Biso   1.000  C
  O23      1.0000 0.90444  0.77121  0.30302  Biso   1.000  O
  H282     1.0000 0.34457  0.79111  0.16508  Biso   1.000  H
  H283     1.0000 0.30006  0.79970  0.26344  Biso   1.000  H
  H284     1.0000 0.25992  0.77201  0.20532  Biso   1.000  H
  H285     1.0000 0.19855  0.92440  0.99304  Biso   1.000  H
  H286     1.0000 0.09291  0.93120  0.87530  Biso   1.000  H
  C198     1.0000 0.11447  0.96025  0.99246  Biso   1.000  C
  H287     1.0000 0.26203  0.76940  0.82300  Biso   1.000  H
  C199     1.0000 0.56988  0.77280  0.11893  Biso   1.000  C
  H288     1.0000 0.45575  0.74279  0.04518  Biso   1.000  H
  H289     1.0000 0.23151  0.89241  0.84628  Biso   1.000  H
  H290     1.0000 0.11210  0.89210  0.73270  Biso   1.000  H
  C200     1.0000 0.27543  0.89853  0.71017  Biso   1.000  C
  H291     1.0000 0.92027  0.00620  0.78692  Biso   1.000  H
  H292     1.0000 0.82244  0.01380  0.66618  Biso   1.000  H
  C201     1.0000 0.00474  0.02171  0.68606  Biso   1.000  C
  H293     1.0000 0.67596  0.84971  0.13847  Biso   1.000  H
  H294     1.0000 0.77793  0.84771  0.26203  Biso   1.000  H
  C202     1.0000 0.59613  0.84609  0.25695  Biso   1.000  C
  H295     1.0000 0.83007  0.76930  0.28606  Biso   1.000  H
  H296     1.0000 0.03114  0.96801  0.95188  Biso   1.000  H
  C203     1.0000 0.21343  0.97648  0.97109  Biso   1.000  C
  H297     1.0000 0.12946  0.96080  0.07295  Biso   1.000  H
  O24      1.0000 0.64766  0.76009  0.21471  Biso   1.000  O
  H298     1.0000 0.36442  0.89361  0.74825  Biso   1.000  H
  H299     1.0000 0.24715  0.89180  0.63309  Biso   1.000  H
  C204     1.0000 0.26475  0.92828  0.70709  Biso   1.000  C
  H300     1.0000 0.98970  0.02120  0.60565  Biso   1.000  H
  H301     1.0000 0.08744  0.01360  0.72638  Biso   1.000  H
  C205     1.0000 0.00926  0.04970  0.72156  Biso   1.000  C
  H302     1.0000 0.51340  0.84151  0.20066  Biso   1.000  H
  H303     1.0000 0.61049  0.83511  0.32339  Biso   1.000  H
  C206     1.0000 0.59549  0.87476  0.28905  Biso   1.000  C
  H304     1.0000 0.19744  0.97609  0.89052  Biso   1.000  H
  H305     1.0000 0.29639  0.96840  0.01059  Biso   1.000  H
  C207     1.0000 0.21822  0.00459  0.00768  Biso   1.000  C
  C208     1.0000 0.60061  0.73731  0.24806  Biso   1.000  C
  H306     1.0000 0.28965  0.93470  0.78442  Biso   1.000  H
  H307     1.0000 0.17565  0.93301  0.66752  Biso   1.000  H
  C209     1.0000 0.33821  0.94183  0.65504  Biso   1.000  C
  H308     1.0000 0.93023  0.05831  0.67458  Biso   1.000  H
  H309     1.0000 0.01319  0.05020  0.79931  Biso   1.000  H
  C210     1.0000 0.11975  0.06554  0.71491  Biso   1.000  C
  H310     1.0000 0.67632  0.87900  0.34892  Biso   1.000  H
  H311     1.0000 0.58778  0.88570  0.22394  Biso   1.000  H
  C211     1.0000 0.48868  0.88154  0.32854  Biso   1.000  C
  H312     1.0000 0.13577  0.01271  0.96710  Biso   1.000  H
  C212     1.0000 0.31864  0.02062  0.98814  Biso   1.000  C
  H313     1.0000 0.23262  0.00499  0.08800  Biso   1.000  H
  H314     1.0000 0.66394  0.73030  0.31607  Biso   1.000  H
  H315     1.0000 0.52467  0.74161  0.26219  Biso   1.000  H
  H316     1.0000 0.58047  0.72419  0.18886  Biso   1.000  H
  H317     1.0000 0.42603  0.93571  0.68780  Biso   1.000  H
  H318     1.0000 0.30591  0.93761  0.57480  Biso   1.000  H
  C213     1.0000 0.33520  0.97180  0.66934  Biso   1.000  C
  H319     1.0000 0.19935  0.05671  0.75865  Biso   1.000  H
  H320     1.0000 0.12048  0.08301  0.74759  Biso   1.000  H
  C214     1.0000 0.11071  0.06835  0.60108  Biso   1.000  C
  H321     1.0000 0.50908  0.89800  0.37145  Biso   1.000  H
  H322     1.0000 0.48131  0.86770  0.37877  Biso   1.000  H
  C215     1.0000 0.36676  0.88452  0.23484  Biso   1.000  C
  H323     1.0000 0.30681  0.01951  0.90856  Biso   1.000  H
  H324     1.0000 0.40146  0.01300  0.03187  Biso   1.000  H
  C216     1.0000 0.31875  0.04911  0.01973  Biso   1.000  C
  H325     1.0000 0.33502  0.97491  0.74476  Biso   1.000  H
  H326     1.0000 0.25312  0.97780  0.61630  Biso   1.000  H
  C217     1.0000 0.42244  0.98779  0.65745  Biso   1.000  C
  H327     1.0000 0.18323  0.07811  0.59942  Biso   1.000  H
  H328     1.0000 0.10920  0.05110  0.56840  Biso   1.000  H
  H329     1.0000 0.03366  0.07770  0.55842  Biso   1.000  H
  H330     1.0000 0.37357  0.89861  0.18536  Biso   1.000  H
  H331     1.0000 0.34691  0.86821  0.19118  Biso   1.000  H
  C218     1.0000 0.25947  0.89087  0.27508  Biso   1.000  C
  H332     1.0000 0.23492  0.05650  0.97774  Biso   1.000  H
  C219     1.0000 0.41699  0.06583  0.99770  Biso   1.000  C
  H333     1.0000 0.33290  0.05020  0.09989  Biso   1.000  H
  H334     1.0000 0.50511  0.98311  0.71400  Biso   1.000  H
  H335     1.0000 0.42648  0.98480  0.58337  Biso   1.000  H
  C220     1.0000 0.40058  0.01440  0.66810  Biso   1.000  C
  H336     1.0000 0.28651  0.90520  0.32996  Biso   1.000  H
  H337     1.0000 0.18639  0.89711  0.21106  Biso   1.000  H
  C221     1.0000 0.21884  0.86739  0.32863  Biso   1.000  C
  H338     1.0000 0.40718  0.06390  0.91879  Biso   1.000  H
  H339     1.0000 0.50151  0.05951  0.04426  Biso   1.000  H
  C222     1.0000 0.40703  0.09426  0.02248  Biso   1.000  C
  H340     1.0000 0.34064  0.01669  0.70601  Biso   1.000  H
  H341     1.0000 0.36491  0.02260  0.59376  Biso   1.000  H
  C223     1.0000 0.51312  0.02560  0.72905  Biso   1.000  C
  H342     1.0000 0.29197  0.86090  0.39215  Biso   1.000  H
  H343     1.0000 0.18948  0.85321  0.27342  Biso   1.000  H
  C224     1.0000 0.11639  0.87458  0.36879  Biso   1.000  C
  H344     1.0000 0.32426  0.10081  0.97550  Biso   1.000  H
  H345     1.0000 0.47176  0.10409  0.00693  Biso   1.000  H
  H346     1.0000 0.41858  0.09630  0.10097  Biso   1.000  H
  H347     1.0000 0.57820  0.01189  0.75549  Biso   1.000  H
  H348     1.0000 0.50668  0.03430  0.79506  Biso   1.000  H
  C225     1.0000 0.54595  0.04270  0.66951  Biso   1.000  C
  H349     1.0000 0.14673  0.88869  0.42425  Biso   1.000  H
  H350     1.0000 0.04454  0.88150  0.30518  Biso   1.000  H
  C226     1.0000 0.07084  0.85243  0.42034  Biso   1.000  C
  H351     1.0000 0.62484  0.05090  0.71574  Biso   1.000  H
  H352     1.0000 0.55698  0.03390  0.60657  Biso   1.000  H
  H353     1.0000 0.48045  0.05590  0.64166  Biso   1.000  H
  C227     1.0000 0.97437  0.86079  0.46981  Biso   1.000  C
  H354     1.0000 0.03296  0.83900  0.36305  Biso   1.000  H
  H355     1.0000 0.14354  0.84450  0.47971  Biso   1.000  H
  H356     1.0000 0.90561  0.87031  0.41261  Biso   1.000  H
  C228     1.0000 0.92069  0.83842  0.50981  Biso   1.000  C
  H357     1.0000 0.01475  0.87280  0.53267  Biso   1.000  H
  H358     1.0000 0.86113  0.84481  0.54215  Biso   1.000  H
  H359     1.0000 0.87726  0.82681  0.44736  Biso   1.000  H
  H360     1.0000 0.98828  0.82891  0.56652  Biso   1.000  H
  C229     1.0000 0.25326  0.22304  0.48500  Biso   1.000  C
  O25      1.0000 0.29479  0.20061  0.44177  Biso   1.000  O
  H361     1.0000 0.31505  0.22729  0.55851  Biso   1.000  H
  H362     1.0000 0.17239  0.21931  0.49107  Biso   1.000  H
  H363     1.0000 0.24385  0.23781  0.43462  Biso   1.000  H
  C230     1.0000 0.21930  0.19157  0.33767  Biso   1.000  C
  C231     1.0000 0.10832  0.20321  0.27356  Biso   1.000  C
  C232     1.0000 0.26561  0.17027  0.29942  Biso   1.000  C
  H364     1.0000 0.07939  0.21810  0.30066  Biso   1.000  H
  C233     1.0000 0.03841  0.19330  0.16929  Biso   1.000  C
  C234     1.0000 0.19241  0.16112  0.19374  Biso   1.000  C
  C235     1.0000 0.38783  0.15731  0.37151  Biso   1.000  C
  C236     1.0000 0.07911  0.17208  0.12614  Biso   1.000  C
  O26      1.0000 0.92652  0.20594  0.11408  Biso   1.000  O
  H365     1.0000 0.22195  0.14641  0.16621  Biso   1.000  H
  H366     1.0000 0.39050  0.15789  0.44958  Biso   1.000  H
  C237     1.0000 0.49986  0.17299  0.37043  Biso   1.000  C
  C238     1.0000 0.39705  0.12874  0.34432  Biso   1.000  C
  C239     1.0000 0.00632  0.16190  0.00973  Biso   1.000  C
  H367     1.0000 0.90303  0.20211  0.04598  Biso   1.000  H
  C240     1.0000 0.53283  0.17317  0.27572  Biso   1.000  C
  C241     1.0000 0.57596  0.18749  0.46031  Biso   1.000  C
  H368     1.0000 0.48115  0.12221  0.39113  Biso   1.000  H
  H369     1.0000 0.38900  0.12730  0.26566  Biso   1.000  H
  C242     1.0000 0.29784  0.11142  0.36236  Biso   1.000  C
  H370     1.0000 0.91558  0.16361  0.99775  Biso   1.000  H
  C243     1.0000 0.02870  0.17950  0.92533  Biso   1.000  C
  C244     1.0000 0.02767  0.13315  0.98952  Biso   1.000  C
  H371     1.0000 0.48190  0.16361  0.21219  Biso   1.000  H
  C245     1.0000 0.63520  0.18642  0.27007  Biso   1.000  C
  C246     1.0000 0.67865  0.20086  0.45856  Biso   1.000  C
  O27      1.0000 0.55165  0.18942  0.55701  Biso   1.000  O
  H372     1.0000 0.31041  0.11179  0.44227  Biso   1.000  H
  H373     1.0000 0.21401  0.11881  0.32037  Biso   1.000  H
  C247     1.0000 0.29990  0.08330  0.32677  Biso   1.000  C
  C248     1.0000 0.94072  0.19777  0.86189  Biso   1.000  C
  C249     1.0000 0.14046  0.17803  0.90671  Biso   1.000  C
  H374     1.0000 0.11897  0.12981  0.01788  Biso   1.000  H
  H375     1.0000 0.99459  0.12990  0.90845  Biso   1.000  H
  C250     1.0000 0.96681  0.11412  0.04423  Biso   1.000  C
  C251     1.0000 0.70865  0.20053  0.36361  Biso   1.000  C
  C252     1.0000 0.67064  0.18419  0.16729  Biso   1.000  C
  H376     1.0000 0.72930  0.21041  0.52225  Biso   1.000  H
  H377     1.0000 0.47999  0.18949  0.53398  Biso   1.000  H
  H378     1.0000 0.28769  0.08289  0.24712  Biso   1.000  H
  H379     1.0000 0.38324  0.07580  0.36926  Biso   1.000  H
  C253     1.0000 0.20022  0.06660  0.34473  Biso   1.000  C
  O28      1.0000 0.83114  0.19884  0.88409  Biso   1.000  O
  C254     1.0000 0.96449  0.21400  0.78606  Biso   1.000  C
  C255     1.0000 0.16708  0.19326  0.82913  Biso   1.000  C
  H380     1.0000 0.20208  0.16590  0.94928  Biso   1.000  H
  H381     1.0000 0.00532  0.11640  0.12580  Biso   1.000  H
  H382     1.0000 0.87681  0.11850  0.02087  Biso   1.000  H
  C256     1.0000 0.97818  0.08563  0.01680  Biso   1.000  C
  O29      1.0000 0.80676  0.21441  0.35380  Biso   1.000  O
  H383     1.0000 0.75532  0.19229  0.18750  Biso   1.000  H
  C257     1.0000 0.58258  0.19939  0.06876  Biso   1.000  C
  C258     1.0000 0.68489  0.15531  0.14110  Biso   1.000  C
  H384     1.0000 0.21335  0.06690  0.42472  Biso   1.000  H
  H385     1.0000 0.11719  0.07440  0.30341  Biso   1.000  H
  C259     1.0000 0.19836  0.03868  0.30873  Biso   1.000  C
  C260     1.0000 0.72374  0.20984  0.80685  Biso   1.000  C
  H386     1.0000 0.90423  0.22640  0.74424  Biso   1.000  H
  C261     1.0000 0.07802  0.21159  0.77292  Biso   1.000  C
  C262     1.0000 0.28592  0.18862  0.80701  Biso   1.000  C
  H387     1.0000 0.06461  0.07961  0.05937  Biso   1.000  H
  H388     1.0000 0.96342  0.08410  0.93664  Biso   1.000  H
  C263     1.0000 0.88675  0.06833  0.04349  Biso   1.000  C
  C264     1.0000 0.88598  0.22838  0.45158  Biso   1.000  C
  C265     1.0000 0.60476  0.22560  0.05471  Biso   1.000  C
  C266     1.0000 0.48052  0.18807  0.98678  Biso   1.000  C
  H389     1.0000 0.60843  0.14571  0.13603  Biso   1.000  H
  H390     1.0000 0.69457  0.15400  0.06843  Biso   1.000  H
  C267     1.0000 0.79842  0.14314  0.23099  Biso   1.000  C
  H391     1.0000 0.28150  0.03080  0.34906  Biso   1.000  H
  H392     1.0000 0.18332  0.03821  0.22833  Biso   1.000  H
  C268     1.0000 0.09916  0.02233  0.32952  Biso   1.000  C
  H393     1.0000 0.65544  0.20891  0.83495  Biso   1.000  H
  H394     1.0000 0.69991  0.20030  0.73650  Biso   1.000  H
  H395     1.0000 0.74015  0.22799  0.79462  Biso   1.000  H
  O30      1.0000 0.09554  0.22879  0.69692  Biso   1.000  O
  C269     1.0000 0.40028  0.20145  0.89282  Biso   1.000  C
  H396     1.0000 0.27326  0.19731  0.73442  Biso   1.000  H
  C270     1.0000 0.30267  0.15947  0.78955  Biso   1.000  C
  H397     1.0000 0.80152  0.07560  0.00690  Biso   1.000  H
  H398     1.0000 0.90711  0.06880  0.12472  Biso   1.000  H
  C271     1.0000 0.88559  0.03975  0.00748  Biso   1.000  C
  H399     1.0000 0.95263  0.23730  0.43520  Biso   1.000  H
  H400     1.0000 0.92349  0.21610  0.51278  Biso   1.000  H
  H401     1.0000 0.83583  0.24121  0.47286  Biso   1.000  H
  O31      1.0000 0.69992  0.23956  0.13079  Biso   1.000  O
  C272     1.0000 0.52847  0.23934  0.96208  Biso   1.000  C
  H402     1.0000 0.46384  0.17019  0.99460  Biso   1.000  H
  H403     1.0000 0.87509  0.14940  0.22109  Biso   1.000  H
  H404     1.0000 0.80159  0.14930  0.30441  Biso   1.000  H
  C273     1.0000 0.79997  0.11377  0.23157  Biso   1.000  C
  H405     1.0000 0.11450  0.02280  0.41000  Biso   1.000  H
  H406     1.0000 0.01602  0.03030  0.28961  Biso   1.000  H
  C274     1.0000 0.09478  0.99427  0.29351  Biso   1.000  C
  H407     1.0000 0.16999  0.23070  0.71389  Biso   1.000  H
  C275     1.0000 0.43019  0.22720  0.88101  Biso   1.000  C
  H408     1.0000 0.32405  0.15029  0.86156  Biso   1.000  H
  H409     1.0000 0.22205  0.15229  0.73792  Biso   1.000  H
  C276     1.0000 0.40384  0.15391  0.74299  Biso   1.000  C
  H410     1.0000 0.87051  0.03920  0.92700  Biso   1.000  H
  H411     1.0000 0.96892  0.03201  0.04806  Biso   1.000  H
  C277     1.0000 0.78658  0.02354  0.02894  Biso   1.000  C
  H412     1.0000 0.73798  0.23060  0.17702  Biso   1.000  H
  H413     1.0000 0.54426  0.25721  0.95485  Biso   1.000  H
  H414     1.0000 0.76847  0.10759  0.15366  Biso   1.000  H
  H415     1.0000 0.88791  0.10790  0.26732  Biso   1.000  H
  C278     1.0000 0.72463  0.10147  0.28977  Biso   1.000  C
  C279     1.0000 0.99532  0.97829  0.31389  Biso   1.000  C
  H416     1.0000 0.07982  0.99380  0.21311  Biso   1.000  H
  H417     1.0000 0.17762  0.98620  0.33376  Biso   1.000  H
  O32      1.0000 0.35241  0.23993  0.78523  Biso   1.000  O
  H418     1.0000 0.48670  0.15849  0.79936  Biso   1.000  H
  H419     1.0000 0.38960  0.16491  0.67664  Biso   1.000  H
  C280     1.0000 0.40457  0.12524  0.71089  Biso   1.000  C
  C281     1.0000 0.78187  0.99541  0.99235  Biso   1.000  C
  H420     1.0000 0.70362  0.03160  0.98944  Biso   1.000  H
  H421     1.0000 0.80257  0.02391  0.10951  Biso   1.000  H
  H422     1.0000 0.63564  0.10641  0.25169  Biso   1.000  H
  H423     1.0000 0.75292  0.10820  0.36685  Biso   1.000  H
  C282     1.0000 0.73535  0.07172  0.29293  Biso   1.000  C
  H424     1.0000 0.91262  0.98640  0.27356  Biso   1.000  H
  C283     1.0000 0.99080  0.95030  0.27838  Biso   1.000  C
  H425     1.0000 0.01028  0.97880  0.39429  Biso   1.000  H
  C284     1.0000 0.39945  0.26269  0.75189  Biso   1.000  C
  H426     1.0000 0.32365  0.12100  0.65103  Biso   1.000  H
  H427     1.0000 0.41229  0.11430  0.77600  Biso   1.000  H
  C285     1.0000 0.51139  0.11846  0.67140  Biso   1.000  C
  H428     1.0000 0.76747  0.99501  0.91203  Biso   1.000  H
  H429     1.0000 0.86433  0.98731  0.03293  Biso   1.000  H
  C286     1.0000 0.68142  0.97938  0.01181  Biso   1.000  C
  H430     1.0000 0.71044  0.06530  0.21560  Biso   1.000  H
  H431     1.0000 0.82444  0.06699  0.33251  Biso   1.000  H
  C287     1.0000 0.66185  0.05817  0.34490  Biso   1.000  C
  H432     1.0000 0.98691  0.94980  0.20072  Biso   1.000  H
  C288     1.0000 0.88035  0.93446  0.28512  Biso   1.000  C
  H433     1.0000 0.06983  0.94169  0.32536  Biso   1.000  H
  H434     1.0000 0.33607  0.26970  0.68395  Biso   1.000  H
  H435     1.0000 0.47534  0.25841  0.73783  Biso   1.000  H
  H436     1.0000 0.41959  0.27581  0.81109  Biso   1.000  H
  H437     1.0000 0.49099  0.10200  0.62849  Biso   1.000  H
  H438     1.0000 0.51879  0.13230  0.62126  Biso   1.000  H
  C289     1.0000 0.63331  0.11548  0.76511  Biso   1.000  C
  H439     1.0000 0.59855  0.98700  0.96815  Biso   1.000  H
  C290     1.0000 0.68123  0.95089  0.98021  Biso   1.000  C
  H440     1.0000 0.69316  0.98051  0.09138  Biso   1.000  H
  H441     1.0000 0.57407  0.06429  0.31222  Biso   1.000  H
  H442     1.0000 0.69410  0.06241  0.42522  Biso   1.000  H
  C291     1.0000 0.66486  0.02820  0.33060  Biso   1.000  C
  H443     1.0000 0.80072  0.94331  0.24130  Biso   1.000  H
  H444     1.0000 0.87958  0.91699  0.25236  Biso   1.000  H
  C292     1.0000 0.88926  0.93167  0.39886  Biso   1.000  C
  H445     1.0000 0.62653  0.10139  0.81466  Biso   1.000  H
  H446     1.0000 0.65318  0.13181  0.80884  Biso   1.000  H
  C293     1.0000 0.74054  0.10915  0.72495  Biso   1.000  C
  H447     1.0000 0.66719  0.94980  0.90014  Biso   1.000  H
  H448     1.0000 0.76506  0.94350  0.02220  Biso   1.000  H
  C294     1.0000 0.58311  0.93417  0.00233  Biso   1.000  C
  H449     1.0000 0.66504  0.02509  0.25518  Biso   1.000  H
  H450     1.0000 0.74698  0.02220  0.38373  Biso   1.000  H
  C295     1.0000 0.57762  0.01221  0.34249  Biso   1.000  C
  H451     1.0000 0.81678  0.92191  0.40061  Biso   1.000  H
  H452     1.0000 0.89081  0.94890  0.43162  Biso   1.000  H
  H453     1.0000 0.96644  0.92230  0.44160  Biso   1.000  H
  H454     1.0000 0.71355  0.09480  0.66998  Biso   1.000  H
  H455     1.0000 0.81367  0.10291  0.78889  Biso   1.000  H
  C296     1.0000 0.78114  0.13261  0.67131  Biso   1.000  C
  H456     1.0000 0.49855  0.94051  0.95568  Biso   1.000  H
  C297     1.0000 0.59307  0.90576  0.97755  Biso   1.000  C
  H457     1.0000 0.59291  0.93610  0.08124  Biso   1.000  H
  H458     1.0000 0.49490  0.01691  0.28603  Biso   1.000  H
  H459     1.0000 0.57349  0.01520  0.41657  Biso   1.000  H
  C298     1.0000 0.59943  0.98560  0.33193  Biso   1.000  C
  H460     1.0000 0.70809  0.13910  0.60779  Biso   1.000  H
  H461     1.0000 0.81058  0.14679  0.72652  Biso   1.000  H
  C299     1.0000 0.88370  0.12542  0.63124  Biso   1.000  C
  H462     1.0000 0.52821  0.89591  0.99302  Biso   1.000  H
  H463     1.0000 0.58143  0.90370  0.89906  Biso   1.000  H
  H464     1.0000 0.67584  0.89921  0.02453  Biso   1.000  H
  H465     1.0000 0.65945  0.98331  0.29401  Biso   1.000  H
  H466     1.0000 0.63515  0.97740  0.40618  Biso   1.000  H
  C300     1.0000 0.48694  0.97440  0.27090  Biso   1.000  C
  H467     1.0000 0.85325  0.11131  0.57569  Biso   1.000  H
  H468     1.0000 0.95547  0.11850  0.69485  Biso   1.000  H
  C301     1.0000 0.92913  0.14757  0.57960  Biso   1.000  C
  H469     1.0000 0.42178  0.98811  0.24446  Biso   1.000  H
  H470     1.0000 0.49330  0.96570  0.20488  Biso   1.000  H
  C302     1.0000 0.45415  0.95730  0.33051  Biso   1.000  C
  H471     1.0000 0.96702  0.16100  0.63689  Biso   1.000  H
  H472     1.0000 0.85643  0.15550  0.52023  Biso   1.000  H
  C303     1.0000 0.02570  0.13921  0.53013  Biso   1.000  C
  H473     1.0000 0.37522  0.94910  0.28420  Biso   1.000  H
  H474     1.0000 0.44300  0.96610  0.39338  Biso   1.000  H
  H475     1.0000 0.51961  0.94410  0.35829  Biso   1.000  H
  H476     1.0000 0.98527  0.12720  0.46735  Biso   1.000  H
  H477     1.0000 0.09437  0.12969  0.58733  Biso   1.000  H
  C304     1.0000 0.07938  0.16158  0.49013  Biso   1.000  C
  H478     1.0000 0.13885  0.15521  0.45779  Biso   1.000  H
  H479     1.0000 0.12275  0.17321  0.55266  Biso   1.000  H
  H480     1.0000 0.01179  0.17111  0.43343  Biso   1.000  H
