data_image0
_cell_length_a       14.712
_cell_length_b       17.513
_cell_length_c       28.912
_cell_angle_alpha    90
_cell_angle_beta     90
_cell_angle_gamma    90

_symmetry_space_group_name_H-M    "P 1"
_symmetry_int_tables_number       1

loop_
  _symmetry_equiv_pos_as_xyz
  'x, y, z'

loop_
  _atom_site_label
  _atom_site_occupancy
  _atom_site_fract_x
  _atom_site_fract_y
  _atom_site_fract_z
  _atom_site_thermal_displace_type
  _atom_site_B_iso_or_equiv
  _atom_site_type_symbol
  C1       1.0000 0.55010  0.35990  0.48260  Biso   1.000  C
  C2       1.0000 0.47064  0.37258  0.45407  Biso   1.000  C
  H1       1.0000 0.57878  0.31280  0.47271  Biso   1.000  H
  H2       1.0000 0.59278  0.40113  0.47700  Biso   1.000  H
  C3       1.0000 0.53439  0.35528  0.53096  Biso   1.000  C
  O1       1.0000 0.48906  0.36887  0.40551  Biso   1.000  O
  H3       1.0000 0.42489  0.33472  0.46171  Biso   1.000  H
  H4       1.0000 0.44549  0.42243  0.46119  Biso   1.000  H
  H5       1.0000 0.49742  0.39759  0.54050  Biso   1.000  H
  H6       1.0000 0.59142  0.35688  0.54700  Biso   1.000  H
  H7       1.0000 0.50367  0.30829  0.53791  Biso   1.000  H
  C4       1.0000 0.51733  0.43625  0.38507  Biso   1.000  C
  C5       1.0000 0.45256  0.49158  0.37452  Biso   1.000  C
  C6       1.0000 0.60753  0.44253  0.37171  Biso   1.000  C
  C7       1.0000 0.35237  0.47416  0.37894  Biso   1.000  C
  C8       1.0000 0.48423  0.55924  0.35421  Biso   1.000  C
  C9       1.0000 0.66864  0.37372  0.37372  Biso   1.000  C
  C10      1.0000 0.63458  0.51116  0.35145  Biso   1.000  C
  C11      1.0000 0.32640  0.41181  0.34519  Biso   1.000  C
  H8       1.0000 0.31722  0.51979  0.37261  Biso   1.000  H
  H9       1.0000 0.33897  0.45783  0.41031  Biso   1.000  H
  H10      1.0000 0.44331  0.59818  0.34771  Biso   1.000  H
  C12      1.0000 0.57382  0.56872  0.34394  Biso   1.000  C
  C13      1.0000 0.63628  0.31388  0.33955  Biso   1.000  C
  H11      1.0000 0.66823  0.35260  0.40471  Biso   1.000  H
  H12      1.0000 0.73042  0.38863  0.36628  Biso   1.000  H
  H13      1.0000 0.69508  0.51779  0.34290  Biso   1.000  H
  C14      1.0000 0.34774  0.41946  0.29880  Biso   1.000  C
  C15      1.0000 0.28365  0.34403  0.35899  Biso   1.000  C
  H14      1.0000 0.59380  0.61491  0.33170  Biso   1.000  H
  C16      1.0000 0.62262  0.23794  0.35224  Biso   1.000  C
  C17      1.0000 0.61351  0.33404  0.29465  Biso   1.000  C
  C18      1.0000 0.32987  0.36162  0.26712  Biso   1.000  C
  H15      1.0000 0.37480  0.46440  0.28860  Biso   1.000  H
  C19      1.0000 0.27141  0.28276  0.32910  Biso   1.000  C
  O2       1.0000 0.25727  0.33769  0.40454  Biso   1.000  O
  C20      1.0000 0.58286  0.18449  0.32274  Biso   1.000  C
  O3       1.0000 0.64505  0.21555  0.39689  Biso   1.000  O
  C21      1.0000 0.57864  0.28156  0.26339  Biso   1.000  C
  H16      1.0000 0.62181  0.38429  0.28521  Biso   1.000  H
  C22      1.0000 0.29507  0.29287  0.28327  Biso   1.000  C
  C23      1.0000 0.34557  0.37190  0.21773  Biso   1.000  C
  C24      1.0000 0.23770  0.20499  0.34532  Biso   1.000  C
  C25      1.0000 0.16007  0.34066  0.41146  Biso   1.000  C
  C26      1.0000 0.55458  0.10575  0.33889  Biso   1.000  C
  C27      1.0000 0.56267  0.20750  0.27798  Biso   1.000  C
  C28      1.0000 0.73593  0.18729  0.40032  Biso   1.000  C
  C29      1.0000 0.55587  0.30560  0.21648  Biso   1.000  C
  H17      1.0000 0.28752  0.25261  0.26269  Biso   1.000  H
  O4       1.0000 0.36630  0.43094  0.19926  Biso   1.000  O
  H18      1.0000 0.33897  0.32918  0.19891  Biso   1.000  H
  C30      1.0000 0.30145  0.14292  0.32955  Biso   1.000  C
  H19      1.0000 0.23362  0.20459  0.37880  Biso   1.000  H
  H20      1.0000 0.17741  0.19563  0.33291  Biso   1.000  H
  H21      1.0000 0.14662  0.32462  0.44279  Biso   1.000  H
  H22      1.0000 0.13139  0.30463  0.39060  Biso   1.000  H
  C31      1.0000 0.12011  0.41689  0.40378  Biso   1.000  C
  C32      1.0000 0.45568  0.09262  0.32741  Biso   1.000  C
  H23      1.0000 0.59169  0.06732  0.32381  Biso   1.000  H
  H24      1.0000 0.56369  0.10141  0.37199  Biso   1.000  H
  H25      1.0000 0.53800  0.17250  0.25740  Biso   1.000  H
  H26      1.0000 0.77862  0.22772  0.39299  Biso   1.000  H
  H27      1.0000 0.74483  0.14612  0.37829  Biso   1.000  H
  C33      1.0000 0.75279  0.15902  0.44801  Biso   1.000  C
  O5       1.0000 0.52461  0.26512  0.18677  Biso   1.000  O
  H28      1.0000 0.56641  0.35642  0.20891  Biso   1.000  H
  C34      1.0000 0.38907  0.13898  0.34702  Biso   1.000  C
  C35      1.0000 0.27828  0.09359  0.29420  Biso   1.000  C
  H29      1.0000 0.13397  0.43379  0.37261  Biso   1.000  H
  H30      1.0000 0.14702  0.45309  0.42519  Biso   1.000  H
  C36      1.0000 0.01788  0.41603  0.41045  Biso   1.000  C
  C37      1.0000 0.42931  0.04391  0.29254  Biso   1.000  C
  C38      1.0000 0.71173  0.09090  0.45939  Biso   1.000  C
  H31      1.0000 0.81790  0.15320  0.45210  Biso   1.000  H
  H32      1.0000 0.73240  0.19768  0.46970  Biso   1.000  H
  O6       1.0000 0.41211  0.18877  0.38206  Biso   1.000  O
  H33      1.0000 0.21982  0.09479  0.28199  Biso   1.000  H
  C39      1.0000 0.34129  0.04214  0.27667  Biso   1.000  C
  H34      1.0000 0.00401  0.40210  0.44179  Biso   1.000  H
  H35      1.0000 0.99110  0.37960  0.38970  Biso   1.000  H
  H36      1.0000 0.99368  0.46583  0.40409  Biso   1.000  H
  H37      1.0000 0.47200  0.01142  0.27940  Biso   1.000  H
  H38      1.0000 0.65232  0.10078  0.47181  Biso   1.000  H
  H39      1.0000 0.74782  0.06481  0.48208  Biso   1.000  H
  H40      1.0000 0.70629  0.05973  0.43231  Biso   1.000  H
  C40      1.0000 0.42312  0.15531  0.42612  Biso   1.000  C
  H41      1.0000 0.32409  0.00668  0.25429  Biso   1.000  H
  H42      1.0000 0.46493  0.18609  0.44421  Biso   1.000  H
  H43      1.0000 0.44984  0.10501  0.42249  Biso   1.000  H
  C41      1.0000 0.33449  0.14818  0.45189  Biso   1.000  C
  C42      1.0000 0.34258  0.12248  0.49865  Biso   1.000  C
  H44      1.0000 0.30472  0.19762  0.45189  Biso   1.000  H
  H45      1.0000 0.29547  0.11289  0.43529  Biso   1.000  H
  H46      1.0000 0.37262  0.07377  0.49920  Biso   1.000  H
  H47      1.0000 0.28317  0.11763  0.51211  Biso   1.000  H
  H48      1.0000 0.37751  0.15868  0.51608  Biso   1.000  H
  C43      1.0000 0.44990  0.64010  0.51740  Biso   1.000  C
  C44      1.0000 0.46561  0.64472  0.46904  Biso   1.000  C
  H49      1.0000 0.42122  0.68720  0.52729  Biso   1.000  H
  H50      1.0000 0.40722  0.59893  0.52300  Biso   1.000  H
  C45      1.0000 0.52943  0.62742  0.54593  Biso   1.000  C
  H51      1.0000 0.50258  0.60241  0.45950  Biso   1.000  H
  H52      1.0000 0.40858  0.64312  0.45300  Biso   1.000  H
  H53      1.0000 0.49633  0.69171  0.46209  Biso   1.000  H
  O7       1.0000 0.51094  0.63119  0.59449  Biso   1.000  O
  H54      1.0000 0.57511  0.66533  0.53829  Biso   1.000  H
  H55      1.0000 0.55451  0.57763  0.53881  Biso   1.000  H
  C46      1.0000 0.48267  0.56375  0.61493  Biso   1.000  C
  C47      1.0000 0.54744  0.50842  0.62548  Biso   1.000  C
  C48      1.0000 0.39247  0.55747  0.62829  Biso   1.000  C
  C49      1.0000 0.64763  0.52590  0.62106  Biso   1.000  C
  C50      1.0000 0.51584  0.44082  0.64579  Biso   1.000  C
  C51      1.0000 0.33136  0.62628  0.62628  Biso   1.000  C
  C52      1.0000 0.36542  0.48884  0.64855  Biso   1.000  C
  C53      1.0000 0.67360  0.58819  0.65481  Biso   1.000  C
  H56      1.0000 0.68278  0.48021  0.62739  Biso   1.000  H
  H57      1.0000 0.66103  0.54223  0.58969  Biso   1.000  H
  H58      1.0000 0.55669  0.40182  0.65229  Biso   1.000  H
  C54      1.0000 0.42618  0.43128  0.65606  Biso   1.000  C
  C55      1.0000 0.36372  0.68612  0.66045  Biso   1.000  C
  H59      1.0000 0.33177  0.64740  0.59529  Biso   1.000  H
  H60      1.0000 0.26958  0.61143  0.63372  Biso   1.000  H
  H61      1.0000 0.30492  0.48221  0.65710  Biso   1.000  H
  C56      1.0000 0.65226  0.58054  0.70120  Biso   1.000  C
  C57      1.0000 0.71635  0.65597  0.64101  Biso   1.000  C
  H62      1.0000 0.40620  0.38509  0.66830  Biso   1.000  H
  C58      1.0000 0.37738  0.76212  0.64776  Biso   1.000  C
  C59      1.0000 0.38649  0.66596  0.70535  Biso   1.000  C
  H63      1.0000 0.62520  0.53560  0.71140  Biso   1.000  H
  C60      1.0000 0.67013  0.63844  0.73288  Biso   1.000  C
  O8       1.0000 0.74273  0.66237  0.59546  Biso   1.000  O
  C61      1.0000 0.72859  0.71730  0.67090  Biso   1.000  C
  O9       1.0000 0.35495  0.78445  0.60311  Biso   1.000  O
  C62      1.0000 0.41714  0.81551  0.67726  Biso   1.000  C
  C63      1.0000 0.42136  0.71844  0.73661  Biso   1.000  C
  H64      1.0000 0.37819  0.61571  0.71479  Biso   1.000  H
  C64      1.0000 0.70493  0.70713  0.71673  Biso   1.000  C
  C65      1.0000 0.65443  0.62810  0.78227  Biso   1.000  C
  C66      1.0000 0.83993  0.65940  0.58854  Biso   1.000  C
  C67      1.0000 0.76230  0.79501  0.65468  Biso   1.000  C
  C68      1.0000 0.26407  0.81271  0.59968  Biso   1.000  C
  C69      1.0000 0.43733  0.79250  0.72202  Biso   1.000  C
  C70      1.0000 0.44542  0.89431  0.66111  Biso   1.000  C
  C71      1.0000 0.44413  0.69440  0.78352  Biso   1.000  C
  H65      1.0000 0.71248  0.74739  0.73731  Biso   1.000  H
  O10      1.0000 0.63370  0.56906  0.80074  Biso   1.000  O
  H66      1.0000 0.66103  0.67082  0.80109  Biso   1.000  H
  H67      1.0000 0.85338  0.67538  0.55721  Biso   1.000  H
  H68      1.0000 0.86861  0.69543  0.60940  Biso   1.000  H
  C72      1.0000 0.87989  0.58311  0.59622  Biso   1.000  C
  C73      1.0000 0.69855  0.85708  0.67045  Biso   1.000  C
  H69      1.0000 0.76638  0.79541  0.62120  Biso   1.000  H
  H70      1.0000 0.82259  0.80443  0.66709  Biso   1.000  H
  H71      1.0000 0.22138  0.77234  0.60701  Biso   1.000  H
  H72      1.0000 0.25523  0.85394  0.62171  Biso   1.000  H
  C74      1.0000 0.24721  0.84103  0.55199  Biso   1.000  C
  H73      1.0000 0.46200  0.82750  0.74260  Biso   1.000  H
  C75      1.0000 0.54432  0.90744  0.67259  Biso   1.000  C
  H74      1.0000 0.40831  0.93274  0.67619  Biso   1.000  H
  H75      1.0000 0.43631  0.89859  0.62801  Biso   1.000  H
  O11      1.0000 0.47546  0.73488  0.81323  Biso   1.000  O
  H76      1.0000 0.43359  0.64364  0.79109  Biso   1.000  H
  H77      1.0000 0.86603  0.56621  0.62739  Biso   1.000  H
  H78      1.0000 0.85298  0.54691  0.57481  Biso   1.000  H
  C76      1.0000 0.98212  0.58402  0.58955  Biso   1.000  C
  C77      1.0000 0.61093  0.86102  0.65298  Biso   1.000  C
  C78      1.0000 0.72172  0.90647  0.70580  Biso   1.000  C
  C79      1.0000 0.28827  0.90910  0.54061  Biso   1.000  C
  H79      1.0000 0.18210  0.84680  0.54790  Biso   1.000  H
  H80      1.0000 0.26760  0.80232  0.53030  Biso   1.000  H
  C80      1.0000 0.57069  0.95609  0.70746  Biso   1.000  C
  H81      1.0000 0.99599  0.59790  0.55821  Biso   1.000  H
  H82      1.0000 0.00890  0.62040  0.61030  Biso   1.000  H
  H83      1.0000 0.00632  0.53423  0.59591  Biso   1.000  H
  O12      1.0000 0.58796  0.81123  0.61794  Biso   1.000  O
  H84      1.0000 0.78018  0.90521  0.71801  Biso   1.000  H
  C81      1.0000 0.65871  0.95786  0.72333  Biso   1.000  C
  H85      1.0000 0.34768  0.89922  0.52819  Biso   1.000  H
  H86      1.0000 0.25218  0.93519  0.51792  Biso   1.000  H
  H87      1.0000 0.29371  0.94033  0.56769  Biso   1.000  H
  H88      1.0000 0.52800  0.98864  0.72060  Biso   1.000  H
  C82      1.0000 0.57688  0.84469  0.57388  Biso   1.000  C
  H89      1.0000 0.67591  0.99332  0.74571  Biso   1.000  H
  H90      1.0000 0.53507  0.81391  0.55579  Biso   1.000  H
  H91      1.0000 0.55023  0.89499  0.57751  Biso   1.000  H
  C83      1.0000 0.66551  0.85182  0.54811  Biso   1.000  C
  C84      1.0000 0.65742  0.87752  0.50135  Biso   1.000  C
  H92      1.0000 0.69528  0.80243  0.54811  Biso   1.000  H
  H93      1.0000 0.70453  0.88711  0.56471  Biso   1.000  H
  H94      1.0000 0.62738  0.92623  0.50080  Biso   1.000  H
  H95      1.0000 0.71683  0.88243  0.48789  Biso   1.000  H
  H96      1.0000 0.62249  0.84132  0.48392  Biso   1.000  H
  C85      1.0000 0.84258  0.37749  0.50135  Biso   1.000  C
  C86      1.0000 0.83449  0.35180  0.54811  Biso   1.000  C
  H97      1.0000 0.87262  0.42620  0.50080  Biso   1.000  H
  H98      1.0000 0.78324  0.38240  0.48789  Biso   1.000  H
  H99      1.0000 0.87751  0.34129  0.48392  Biso   1.000  H
  C87      1.0000 0.92312  0.34472  0.57388  Biso   1.000  C
  H100     1.0000 0.80472  0.30240  0.54811  Biso   1.000  H
  H101     1.0000 0.79547  0.38708  0.56471  Biso   1.000  H
  O13      1.0000 0.91211  0.31125  0.61794  Biso   1.000  O
  H102     1.0000 0.96493  0.31388  0.55579  Biso   1.000  H
  H103     1.0000 0.94984  0.39502  0.57751  Biso   1.000  H
  C88      1.0000 0.88907  0.36105  0.65298  Biso   1.000  C
  C89      1.0000 0.80145  0.35705  0.67045  Biso   1.000  C
  C90      1.0000 0.95575  0.40741  0.67259  Biso   1.000  C
  C91      1.0000 0.73770  0.29498  0.65468  Biso   1.000  C
  C92      1.0000 0.77828  0.40644  0.70580  Biso   1.000  C
  C93      1.0000 0.92931  0.45612  0.70746  Biso   1.000  C
  C94      1.0000 0.05458  0.39428  0.66111  Biso   1.000  C
  C95      1.0000 0.77141  0.21727  0.67090  Biso   1.000  C
  H104     1.0000 0.73362  0.29538  0.62120  Biso   1.000  H
  H105     1.0000 0.67741  0.30440  0.66709  Biso   1.000  H
  H106     1.0000 0.71982  0.40518  0.71801  Biso   1.000  H
  C96      1.0000 0.84129  0.45789  0.72333  Biso   1.000  C
  H107     1.0000 0.97200  0.48861  0.72060  Biso   1.000  H
  C97      1.0000 0.08286  0.31548  0.67726  Biso   1.000  C
  H108     1.0000 0.09169  0.43271  0.67619  Biso   1.000  H
  H109     1.0000 0.06369  0.39862  0.62801  Biso   1.000  H
  C98      1.0000 0.78365  0.15594  0.64101  Biso   1.000  C
  C99      1.0000 0.79507  0.20716  0.71673  Biso   1.000  C
  H110     1.0000 0.82409  0.49329  0.74571  Biso   1.000  H
  C100     1.0000 0.12262  0.26209  0.64776  Biso   1.000  C
  C101     1.0000 0.06267  0.29247  0.72202  Biso   1.000  C
  O14      1.0000 0.75727  0.16234  0.59546  Biso   1.000  O
  C102     1.0000 0.82640  0.08822  0.65481  Biso   1.000  C
  C103     1.0000 0.82987  0.13841  0.73288  Biso   1.000  C
  H111     1.0000 0.78752  0.24742  0.73731  Biso   1.000  H
  C104     1.0000 0.13628  0.18609  0.66045  Biso   1.000  C
  O15      1.0000 0.14505  0.28447  0.60311  Biso   1.000  O
  C105     1.0000 0.07864  0.21841  0.73661  Biso   1.000  C
  H112     1.0000 0.03800  0.32753  0.74260  Biso   1.000  H
  C106     1.0000 0.66007  0.15937  0.58854  Biso   1.000  C
  C107     1.0000 0.84774  0.08051  0.70120  Biso   1.000  C
  C108     1.0000 0.85237  0.02587  0.62106  Biso   1.000  C
  C109     1.0000 0.84557  0.12808  0.78227  Biso   1.000  C
  C110     1.0000 0.16864  0.12625  0.62628  Biso   1.000  C
  C111     1.0000 0.11351  0.16593  0.70535  Biso   1.000  C
  C112     1.0000 0.23593  0.31268  0.59968  Biso   1.000  C
  C113     1.0000 0.05587  0.19443  0.78352  Biso   1.000  C
  C114     1.0000 0.62011  0.08308  0.59622  Biso   1.000  C
  H113     1.0000 0.64662  0.17541  0.55721  Biso   1.000  H
  H114     1.0000 0.63139  0.19540  0.60940  Biso   1.000  H
  H115     1.0000 0.87480  0.03557  0.71140  Biso   1.000  H
  H116     1.0000 0.83897  0.04220  0.58969  Biso   1.000  H
  C115     1.0000 0.95256  0.00839  0.62548  Biso   1.000  C
  H117     1.0000 0.81722  0.98024  0.62739  Biso   1.000  H
  O16      1.0000 0.86630  0.06903  0.80074  Biso   1.000  O
  H118     1.0000 0.83897  0.17079  0.80109  Biso   1.000  H
  C116     1.0000 0.10753  0.05744  0.62829  Biso   1.000  C
  H119     1.0000 0.16823  0.14738  0.59529  Biso   1.000  H
  H120     1.0000 0.23042  0.11140  0.63372  Biso   1.000  H
  H121     1.0000 0.12181  0.11569  0.71479  Biso   1.000  H
  H122     1.0000 0.27862  0.27231  0.60701  Biso   1.000  H
  H123     1.0000 0.24483  0.35391  0.62171  Biso   1.000  H
  C117     1.0000 0.25279  0.34100  0.55199  Biso   1.000  C
  O17      1.0000 0.02454  0.23491  0.81323  Biso   1.000  O
  H124     1.0000 0.06641  0.14361  0.79109  Biso   1.000  H
  C118     1.0000 0.51788  0.08399  0.58955  Biso   1.000  C
  H125     1.0000 0.63397  0.06618  0.62739  Biso   1.000  H
  H126     1.0000 0.64702  0.04688  0.57481  Biso   1.000  H
  C119     1.0000 0.98423  0.94079  0.64579  Biso   1.000  C
  C120     1.0000 0.01733  0.06372  0.61493  Biso   1.000  C
  C121     1.0000 0.13458  0.98887  0.64855  Biso   1.000  C
  C122     1.0000 0.21173  0.40912  0.54061  Biso   1.000  C
  H127     1.0000 0.31790  0.34683  0.54790  Biso   1.000  H
  H128     1.0000 0.23240  0.30229  0.53030  Biso   1.000  H
  H129     1.0000 0.49110  0.12042  0.61030  Biso   1.000  H
  H130     1.0000 0.49368  0.03420  0.59591  Biso   1.000  H
  H131     1.0000 0.50401  0.09793  0.55821  Biso   1.000  H
  H132     1.0000 0.94331  0.90179  0.65229  Biso   1.000  H
  C123     1.0000 0.07382  0.93131  0.65606  Biso   1.000  C
  O18      1.0000 0.98906  0.13116  0.59449  Biso   1.000  O
  H133     1.0000 0.19508  0.98224  0.65710  Biso   1.000  H
  H134     1.0000 0.15232  0.39919  0.52819  Biso   1.000  H
  H135     1.0000 0.24782  0.43522  0.51792  Biso   1.000  H
  H136     1.0000 0.20629  0.44030  0.56769  Biso   1.000  H
  H137     1.0000 0.09380  0.88511  0.66830  Biso   1.000  H
  C124     1.0000 0.97064  0.12739  0.54593  Biso   1.000  C
  H138     1.0000 0.92489  0.16531  0.53829  Biso   1.000  H
  H139     1.0000 0.94549  0.07760  0.53881  Biso   1.000  H
  C125     1.0000 0.05010  0.14012  0.51740  Biso   1.000  C
  H140     1.0000 0.07878  0.18718  0.52729  Biso   1.000  H
  H141     1.0000 0.09278  0.09890  0.52300  Biso   1.000  H
  C126     1.0000 0.03439  0.14469  0.46904  Biso   1.000  C
  H142     1.0000 0.99742  0.10238  0.45950  Biso   1.000  H
  H143     1.0000 0.09142  0.14309  0.45300  Biso   1.000  H
  H144     1.0000 0.00367  0.19169  0.46209  Biso   1.000  H
  C127     1.0000 0.15742  0.62251  0.49865  Biso   1.000  C
  C128     1.0000 0.16551  0.64820  0.45189  Biso   1.000  C
  H145     1.0000 0.12738  0.57380  0.49920  Biso   1.000  H
  H146     1.0000 0.21683  0.61760  0.51211  Biso   1.000  H
  H147     1.0000 0.12249  0.65871  0.51608  Biso   1.000  H
  C129     1.0000 0.07688  0.65528  0.42612  Biso   1.000  C
  H148     1.0000 0.19528  0.69760  0.45189  Biso   1.000  H
  H149     1.0000 0.20453  0.61292  0.43529  Biso   1.000  H
  O19      1.0000 0.08789  0.68880  0.38206  Biso   1.000  O
  H150     1.0000 0.03507  0.68612  0.44421  Biso   1.000  H
  H151     1.0000 0.05023  0.60504  0.42249  Biso   1.000  H
  C130     1.0000 0.11093  0.63895  0.34702  Biso   1.000  C
  C131     1.0000 0.04432  0.59259  0.32741  Biso   1.000  C
  C132     1.0000 0.19855  0.64295  0.32955  Biso   1.000  C
  C133     1.0000 0.07069  0.54394  0.29254  Biso   1.000  C
  C134     1.0000 0.94542  0.60572  0.33889  Biso   1.000  C
  C135     1.0000 0.22172  0.59356  0.29420  Biso   1.000  C
  C136     1.0000 0.26230  0.70502  0.34532  Biso   1.000  C
  C137     1.0000 0.15871  0.54217  0.27667  Biso   1.000  C
  H152     1.0000 0.02800  0.51139  0.27940  Biso   1.000  H
  C138     1.0000 0.91714  0.68452  0.32274  Biso   1.000  C
  H153     1.0000 0.90831  0.56729  0.32381  Biso   1.000  H
  H154     1.0000 0.93631  0.60138  0.37199  Biso   1.000  H
  H155     1.0000 0.28018  0.59482  0.28199  Biso   1.000  H
  C139     1.0000 0.22859  0.78273  0.32910  Biso   1.000  C
  H156     1.0000 0.26638  0.70462  0.37880  Biso   1.000  H
  H157     1.0000 0.32259  0.69560  0.33291  Biso   1.000  H
  H158     1.0000 0.17591  0.50671  0.25429  Biso   1.000  H
  C140     1.0000 0.93733  0.70753  0.27798  Biso   1.000  C
  C141     1.0000 0.87738  0.73791  0.35224  Biso   1.000  C
  C142     1.0000 0.20493  0.79290  0.28327  Biso   1.000  C
  C143     1.0000 0.21635  0.84406  0.35899  Biso   1.000  C
  C144     1.0000 0.92136  0.78159  0.26339  Biso   1.000  C
  H159     1.0000 0.96200  0.67253  0.25740  Biso   1.000  H
  O20      1.0000 0.85495  0.71558  0.39689  Biso   1.000  O
  C145     1.0000 0.86372  0.81391  0.33955  Biso   1.000  C
  C146     1.0000 0.17013  0.86159  0.26712  Biso   1.000  C
  H160     1.0000 0.21248  0.75264  0.26269  Biso   1.000  H
  O21      1.0000 0.24273  0.83766  0.40454  Biso   1.000  O
  C147     1.0000 0.17360  0.91178  0.34519  Biso   1.000  C
  C148     1.0000 0.88649  0.83407  0.29465  Biso   1.000  C
  C149     1.0000 0.94413  0.80563  0.21648  Biso   1.000  C
  C150     1.0000 0.76414  0.68732  0.40032  Biso   1.000  C
  C151     1.0000 0.83136  0.87375  0.37372  Biso   1.000  C
  C152     1.0000 0.15226  0.91949  0.29880  Biso   1.000  C
  C153     1.0000 0.15443  0.87192  0.21773  Biso   1.000  C
  C154     1.0000 0.33993  0.84063  0.41146  Biso   1.000  C
  C155     1.0000 0.14763  0.97413  0.37894  Biso   1.000  C
  H161     1.0000 0.87819  0.88431  0.28521  Biso   1.000  H
  O22      1.0000 0.97546  0.76515  0.18677  Biso   1.000  O
  H162     1.0000 0.93359  0.85639  0.20891  Biso   1.000  H
  H163     1.0000 0.72138  0.72769  0.39299  Biso   1.000  H
  H164     1.0000 0.75523  0.64609  0.37829  Biso   1.000  H
  C156     1.0000 0.74721  0.65900  0.44801  Biso   1.000  C
  H165     1.0000 0.83184  0.85262  0.40471  Biso   1.000  H
  H166     1.0000 0.76958  0.88860  0.36628  Biso   1.000  H
  C157     1.0000 0.89254  0.94256  0.37171  Biso   1.000  C
  H167     1.0000 0.12520  0.96443  0.28860  Biso   1.000  H
  O23      1.0000 0.13370  0.93097  0.19926  Biso   1.000  O
  H168     1.0000 0.16103  0.82921  0.19891  Biso   1.000  H
  H169     1.0000 0.35338  0.82459  0.44279  Biso   1.000  H
  H170     1.0000 0.36861  0.80460  0.39060  Biso   1.000  H
  C158     1.0000 0.37989  0.91692  0.40378  Biso   1.000  C
  H171     1.0000 0.16103  0.95780  0.41031  Biso   1.000  H
  C159     1.0000 0.04744  0.99161  0.37452  Biso   1.000  C
  H172     1.0000 0.18278  0.01981  0.37261  Biso   1.000  H
  C160     1.0000 0.78834  0.59093  0.45939  Biso   1.000  C
  H173     1.0000 0.68210  0.65323  0.45210  Biso   1.000  H
  H174     1.0000 0.76760  0.69771  0.46970  Biso   1.000  H
  C161     1.0000 0.98267  0.93628  0.38507  Biso   1.000  C
  C162     1.0000 0.86542  0.01113  0.35145  Biso   1.000  C
  H175     1.0000 0.36603  0.93382  0.37261  Biso   1.000  H
  H176     1.0000 0.35298  0.95312  0.42519  Biso   1.000  H
  C163     1.0000 0.48212  0.91601  0.41045  Biso   1.000  C
  C164     1.0000 0.01577  0.05921  0.35421  Biso   1.000  C
  H177     1.0000 0.84768  0.60081  0.47181  Biso   1.000  H
  H178     1.0000 0.75218  0.56484  0.48208  Biso   1.000  H
  H179     1.0000 0.79371  0.55970  0.43231  Biso   1.000  H
  O24      1.0000 0.01094  0.86884  0.40551  Biso   1.000  O
  H180     1.0000 0.80492  0.01782  0.34290  Biso   1.000  H
  C165     1.0000 0.92618  0.06875  0.34394  Biso   1.000  C
  H181     1.0000 0.50890  0.87963  0.38970  Biso   1.000  H
  H182     1.0000 0.50632  0.96580  0.40409  Biso   1.000  H
  H183     1.0000 0.49599  0.90213  0.44179  Biso   1.000  H
  H184     1.0000 0.05669  0.09821  0.34771  Biso   1.000  H
  C166     1.0000 0.02943  0.87261  0.45407  Biso   1.000  C
  H185     1.0000 0.90620  0.11489  0.33170  Biso   1.000  H
  H186     1.0000 0.07511  0.83469  0.46171  Biso   1.000  H
  H187     1.0000 0.05451  0.92240  0.46119  Biso   1.000  H
  C167     1.0000 0.94990  0.85993  0.48260  Biso   1.000  C
  H188     1.0000 0.92122  0.81282  0.47271  Biso   1.000  H
  H189     1.0000 0.90722  0.90110  0.47700  Biso   1.000  H
  C168     1.0000 0.96561  0.85531  0.53096  Biso   1.000  C
  H190     1.0000 0.00258  0.89762  0.54050  Biso   1.000  H
  H191     1.0000 0.90858  0.85691  0.54700  Biso   1.000  H
  H192     1.0000 0.99633  0.80831  0.53791  Biso   1.000  H
  O25      1.0000 0.52461  0.23491  0.68677  Biso   1.000  O
  C169     1.0000 0.55587  0.19443  0.71648  Biso   1.000  C
  C170     1.0000 0.57864  0.21841  0.76339  Biso   1.000  C
  H193     1.0000 0.56641  0.14361  0.70891  Biso   1.000  H
  C171     1.0000 0.56267  0.29247  0.77798  Biso   1.000  C
  C172     1.0000 0.61351  0.16593  0.79465  Biso   1.000  C
  H194     1.0000 0.53800  0.32753  0.75740  Biso   1.000  H
  C173     1.0000 0.58286  0.31548  0.82274  Biso   1.000  C
  H195     1.0000 0.62181  0.11569  0.78521  Biso   1.000  H
  C174     1.0000 0.63628  0.18609  0.83955  Biso   1.000  C
  C175     1.0000 0.62262  0.26209  0.85224  Biso   1.000  C
  C176     1.0000 0.55458  0.39428  0.83889  Biso   1.000  C
  C177     1.0000 0.66864  0.12625  0.87372  Biso   1.000  C
  O26      1.0000 0.64505  0.28447  0.89689  Biso   1.000  O
  C178     1.0000 0.45568  0.40741  0.82741  Biso   1.000  C
  H196     1.0000 0.59169  0.43271  0.82381  Biso   1.000  H
  H197     1.0000 0.56369  0.39862  0.87199  Biso   1.000  H
  H198     1.0000 0.66823  0.14738  0.90471  Biso   1.000  H
  H199     1.0000 0.73042  0.11140  0.86628  Biso   1.000  H
  C179     1.0000 0.60753  0.05744  0.87171  Biso   1.000  C
  C180     1.0000 0.73593  0.31268  0.90032  Biso   1.000  C
  C181     1.0000 0.38907  0.36105  0.84702  Biso   1.000  C
  C182     1.0000 0.42931  0.45612  0.79254  Biso   1.000  C
  C183     1.0000 0.51733  0.06372  0.88507  Biso   1.000  C
  C184     1.0000 0.63458  0.98887  0.85145  Biso   1.000  C
  H200     1.0000 0.77862  0.27231  0.89299  Biso   1.000  H
  H201     1.0000 0.74483  0.35391  0.87829  Biso   1.000  H
  C185     1.0000 0.75279  0.34100  0.94801  Biso   1.000  C
  O27      1.0000 0.41211  0.31125  0.88206  Biso   1.000  O
  C186     1.0000 0.30145  0.35705  0.82955  Biso   1.000  C
  H202     1.0000 0.47200  0.48861  0.77940  Biso   1.000  H
  C187     1.0000 0.34129  0.45789  0.77667  Biso   1.000  C
  O28      1.0000 0.48906  0.13116  0.90551  Biso   1.000  O
  C188     1.0000 0.45256  0.00839  0.87452  Biso   1.000  C
  H203     1.0000 0.69508  0.98224  0.84290  Biso   1.000  H
  C189     1.0000 0.57382  0.93131  0.84394  Biso   1.000  C
  C190     1.0000 0.71173  0.40912  0.95939  Biso   1.000  C
  H204     1.0000 0.81790  0.34683  0.95210  Biso   1.000  H
  H205     1.0000 0.73240  0.30229  0.96970  Biso   1.000  H
  C191     1.0000 0.42312  0.34472  0.92612  Biso   1.000  C
  C192     1.0000 0.23770  0.29498  0.84532  Biso   1.000  C
  C193     1.0000 0.27828  0.40644  0.79420  Biso   1.000  C
  H206     1.0000 0.32409  0.49329  0.75429  Biso   1.000  H
  C194     1.0000 0.47064  0.12739  0.95407  Biso   1.000  C
  C195     1.0000 0.35237  0.02587  0.87894  Biso   1.000  C
  C196     1.0000 0.48423  0.94079  0.85421  Biso   1.000  C
  H207     1.0000 0.59380  0.88511  0.83170  Biso   1.000  H
  H208     1.0000 0.65232  0.39919  0.97181  Biso   1.000  H
  H209     1.0000 0.74782  0.43522  0.98208  Biso   1.000  H
  H210     1.0000 0.70629  0.44030  0.93231  Biso   1.000  H
  H211     1.0000 0.46493  0.31388  0.94421  Biso   1.000  H
  H212     1.0000 0.44984  0.39502  0.92249  Biso   1.000  H
  C197     1.0000 0.33449  0.35180  0.95189  Biso   1.000  C
  C198     1.0000 0.27141  0.21727  0.82910  Biso   1.000  C
  H213     1.0000 0.23362  0.29538  0.87880  Biso   1.000  H
  H214     1.0000 0.17741  0.30440  0.83291  Biso   1.000  H
  H215     1.0000 0.21982  0.40518  0.78199  Biso   1.000  H
  C199     1.0000 0.55010  0.14012  0.98260  Biso   1.000  C
  H216     1.0000 0.42489  0.16531  0.96171  Biso   1.000  H
  H217     1.0000 0.44549  0.07760  0.96119  Biso   1.000  H
  C200     1.0000 0.32640  0.08822  0.84519  Biso   1.000  C
  H218     1.0000 0.33897  0.04220  0.91031  Biso   1.000  H
  H219     1.0000 0.31722  0.98024  0.87261  Biso   1.000  H
  H220     1.0000 0.44331  0.90179  0.84771  Biso   1.000  H
  C201     1.0000 0.34258  0.37749  0.99865  Biso   1.000  C
  H221     1.0000 0.30472  0.30240  0.95189  Biso   1.000  H
  H222     1.0000 0.29547  0.38708  0.93529  Biso   1.000  H
  C202     1.0000 0.29507  0.20716  0.78327  Biso   1.000  C
  C203     1.0000 0.28365  0.15594  0.85899  Biso   1.000  C
  H223     1.0000 0.57878  0.18718  0.97271  Biso   1.000  H
  H224     1.0000 0.59278  0.09890  0.97700  Biso   1.000  H
  C204     1.0000 0.53439  0.14469  0.03096  Biso   1.000  C
  C205     1.0000 0.34774  0.08051  0.79880  Biso   1.000  C
  H225     1.0000 0.37262  0.42620  0.99920  Biso   1.000  H
  H226     1.0000 0.28317  0.38240  0.01211  Biso   1.000  H
  H227     1.0000 0.37751  0.34129  0.01608  Biso   1.000  H
  C206     1.0000 0.32987  0.13841  0.76712  Biso   1.000  C
  H228     1.0000 0.28752  0.24742  0.76269  Biso   1.000  H
  O29      1.0000 0.25727  0.16234  0.90454  Biso   1.000  O
  H229     1.0000 0.49742  0.10238  0.04050  Biso   1.000  H
  H230     1.0000 0.59142  0.14309  0.04700  Biso   1.000  H
  H231     1.0000 0.50367  0.19169  0.03791  Biso   1.000  H
  H232     1.0000 0.37480  0.03557  0.78860  Biso   1.000  H
  C207     1.0000 0.34557  0.12808  0.71773  Biso   1.000  C
  C208     1.0000 0.16007  0.15937  0.91146  Biso   1.000  C
  O30      1.0000 0.36630  0.06903  0.69926  Biso   1.000  O
  H233     1.0000 0.33897  0.17079  0.69891  Biso   1.000  H
  H234     1.0000 0.14662  0.17541  0.94279  Biso   1.000  H
  H235     1.0000 0.13139  0.19540  0.89060  Biso   1.000  H
  C209     1.0000 0.12011  0.08308  0.90378  Biso   1.000  C
  H236     1.0000 0.13397  0.06618  0.87261  Biso   1.000  H
  H237     1.0000 0.14702  0.04688  0.92519  Biso   1.000  H
  C210     1.0000 0.01788  0.08399  0.91045  Biso   1.000  C
  H238     1.0000 0.00401  0.09793  0.94179  Biso   1.000  H
  H239     1.0000 0.99110  0.12042  0.88970  Biso   1.000  H
  H240     1.0000 0.99368  0.03420  0.90409  Biso   1.000  H
  O31      1.0000 0.47546  0.76515  0.31323  Biso   1.000  O
  C211     1.0000 0.44413  0.80563  0.28352  Biso   1.000  C
  C212     1.0000 0.42136  0.78159  0.23661  Biso   1.000  C
  H241     1.0000 0.43359  0.85639  0.29109  Biso   1.000  H
  C213     1.0000 0.43733  0.70753  0.22202  Biso   1.000  C
  C214     1.0000 0.38649  0.83407  0.20535  Biso   1.000  C
  C215     1.0000 0.41714  0.68452  0.17726  Biso   1.000  C
  H242     1.0000 0.46200  0.67253  0.24260  Biso   1.000  H
  C216     1.0000 0.36372  0.81391  0.16045  Biso   1.000  C
  H243     1.0000 0.37819  0.88431  0.21479  Biso   1.000  H
  C217     1.0000 0.44542  0.60572  0.16111  Biso   1.000  C
  C218     1.0000 0.37738  0.73791  0.14776  Biso   1.000  C
  C219     1.0000 0.33136  0.87375  0.12628  Biso   1.000  C
  C220     1.0000 0.54432  0.59259  0.17259  Biso   1.000  C
  H244     1.0000 0.40831  0.56729  0.17619  Biso   1.000  H
  H245     1.0000 0.43631  0.60138  0.12801  Biso   1.000  H
  O32      1.0000 0.35495  0.71558  0.10311  Biso   1.000  O
  H246     1.0000 0.33177  0.85262  0.09529  Biso   1.000  H
  H247     1.0000 0.26958  0.88860  0.13372  Biso   1.000  H
  C221     1.0000 0.39247  0.94256  0.12829  Biso   1.000  C
  C222     1.0000 0.57069  0.54394  0.20746  Biso   1.000  C
  C223     1.0000 0.61093  0.63895  0.15298  Biso   1.000  C
  C224     1.0000 0.26407  0.68732  0.09968  Biso   1.000  C
  C225     1.0000 0.48267  0.93628  0.11493  Biso   1.000  C
  C226     1.0000 0.36542  0.01113  0.14855  Biso   1.000  C
  H248     1.0000 0.52800  0.51139  0.22060  Biso   1.000  H
  C227     1.0000 0.65871  0.54217  0.22333  Biso   1.000  C
  O33      1.0000 0.58796  0.68880  0.11794  Biso   1.000  O
  C228     1.0000 0.69855  0.64295  0.17045  Biso   1.000  C
  H249     1.0000 0.22138  0.72769  0.10701  Biso   1.000  H
  H250     1.0000 0.25523  0.64609  0.12171  Biso   1.000  H
  C229     1.0000 0.24721  0.65900  0.05199  Biso   1.000  C
  C230     1.0000 0.54744  0.99161  0.12548  Biso   1.000  C
  O34      1.0000 0.51094  0.86884  0.09449  Biso   1.000  O
  H251     1.0000 0.30492  0.01782  0.15710  Biso   1.000  H
  C231     1.0000 0.42618  0.06875  0.15606  Biso   1.000  C
  C232     1.0000 0.72172  0.59356  0.20580  Biso   1.000  C
  H252     1.0000 0.67591  0.50671  0.24571  Biso   1.000  H
  C233     1.0000 0.57688  0.65528  0.07388  Biso   1.000  C
  C234     1.0000 0.76230  0.70502  0.15468  Biso   1.000  C
  C235     1.0000 0.28827  0.59093  0.04061  Biso   1.000  C
  H253     1.0000 0.18210  0.65323  0.04790  Biso   1.000  H
  H254     1.0000 0.26760  0.69771  0.03030  Biso   1.000  H
  C236     1.0000 0.64763  0.97413  0.12106  Biso   1.000  C
  C237     1.0000 0.51584  0.05921  0.14579  Biso   1.000  C
  C238     1.0000 0.52943  0.87261  0.04593  Biso   1.000  C
  H255     1.0000 0.40620  0.11489  0.16830  Biso   1.000  H
  H256     1.0000 0.78018  0.59482  0.21801  Biso   1.000  H
  H257     1.0000 0.53507  0.68612  0.05579  Biso   1.000  H
  H258     1.0000 0.55023  0.60504  0.07751  Biso   1.000  H
  C239     1.0000 0.66551  0.64820  0.04811  Biso   1.000  C
  C240     1.0000 0.72859  0.78273  0.17090  Biso   1.000  C
  H259     1.0000 0.76638  0.70462  0.12120  Biso   1.000  H
  H260     1.0000 0.82259  0.69560  0.16709  Biso   1.000  H
  H261     1.0000 0.34768  0.60081  0.02819  Biso   1.000  H
  H262     1.0000 0.25218  0.56484  0.01792  Biso   1.000  H
  H263     1.0000 0.29371  0.55970  0.06769  Biso   1.000  H
  C241     1.0000 0.67360  0.91178  0.15481  Biso   1.000  C
  H264     1.0000 0.66103  0.95780  0.08969  Biso   1.000  H
  H265     1.0000 0.68278  0.01981  0.12739  Biso   1.000  H
  H266     1.0000 0.55669  0.09821  0.15229  Biso   1.000  H
  C242     1.0000 0.44990  0.85993  0.01740  Biso   1.000  C
  H267     1.0000 0.57511  0.83469  0.03829  Biso   1.000  H
  H268     1.0000 0.55451  0.92240  0.03881  Biso   1.000  H
  C243     1.0000 0.65742  0.62251  0.00135  Biso   1.000  C
  H269     1.0000 0.69528  0.69760  0.04811  Biso   1.000  H
  H270     1.0000 0.70453  0.61292  0.06471  Biso   1.000  H
  C244     1.0000 0.70493  0.79290  0.21673  Biso   1.000  C
  C245     1.0000 0.71635  0.84406  0.14101  Biso   1.000  C
  C246     1.0000 0.65226  0.91949  0.20120  Biso   1.000  C
  H271     1.0000 0.42122  0.81282  0.02729  Biso   1.000  H
  H272     1.0000 0.40722  0.90110  0.02300  Biso   1.000  H
  C247     1.0000 0.46561  0.85531  0.96904  Biso   1.000  C
  H273     1.0000 0.62738  0.57380  0.00080  Biso   1.000  H
  H274     1.0000 0.71683  0.61760  0.98789  Biso   1.000  H
  H275     1.0000 0.62249  0.65871  0.98392  Biso   1.000  H
  C248     1.0000 0.67013  0.86159  0.23288  Biso   1.000  C
  H276     1.0000 0.71248  0.75264  0.23731  Biso   1.000  H
  O35      1.0000 0.74273  0.83766  0.09546  Biso   1.000  O
  H277     1.0000 0.62520  0.96443  0.21140  Biso   1.000  H
  H278     1.0000 0.50258  0.89762  0.95950  Biso   1.000  H
  H279     1.0000 0.40858  0.85691  0.95300  Biso   1.000  H
  H280     1.0000 0.49633  0.80831  0.96209  Biso   1.000  H
  C249     1.0000 0.65443  0.87192  0.28227  Biso   1.000  C
  C250     1.0000 0.83993  0.84063  0.08854  Biso   1.000  C
  O36      1.0000 0.63370  0.93097  0.30074  Biso   1.000  O
  H281     1.0000 0.66103  0.82921  0.30109  Biso   1.000  H
  H282     1.0000 0.85338  0.82459  0.05721  Biso   1.000  H
  H283     1.0000 0.86861  0.80460  0.10940  Biso   1.000  H
  C251     1.0000 0.87989  0.91692  0.09622  Biso   1.000  C
  H284     1.0000 0.86603  0.93382  0.12739  Biso   1.000  H
  H285     1.0000 0.85298  0.95312  0.07481  Biso   1.000  H
  C252     1.0000 0.98212  0.91601  0.08955  Biso   1.000  C
  H286     1.0000 0.99599  0.90213  0.05821  Biso   1.000  H
  H287     1.0000 0.00890  0.87963  0.11030  Biso   1.000  H
  H288     1.0000 0.00632  0.96580  0.09591  Biso   1.000  H
  O37      1.0000 0.86630  0.43094  0.30074  Biso   1.000  O
  C253     1.0000 0.84557  0.37190  0.28227  Biso   1.000  C
  C254     1.0000 0.82987  0.36162  0.23288  Biso   1.000  C
  H289     1.0000 0.83897  0.32918  0.30109  Biso   1.000  H
  C255     1.0000 0.84774  0.41946  0.20120  Biso   1.000  C
  C256     1.0000 0.79507  0.29287  0.21673  Biso   1.000  C
  C257     1.0000 0.82640  0.41181  0.15481  Biso   1.000  C
  H290     1.0000 0.87480  0.46440  0.21140  Biso   1.000  H
  C258     1.0000 0.77141  0.28276  0.17090  Biso   1.000  C
  H291     1.0000 0.78752  0.25261  0.23731  Biso   1.000  H
  C259     1.0000 0.78365  0.34403  0.14101  Biso   1.000  C
  C260     1.0000 0.85237  0.47416  0.12106  Biso   1.000  C
  C261     1.0000 0.73770  0.20499  0.15468  Biso   1.000  C
  O38      1.0000 0.75727  0.33769  0.09546  Biso   1.000  O
  H292     1.0000 0.81722  0.51979  0.12739  Biso   1.000  H
  H293     1.0000 0.83897  0.45783  0.08969  Biso   1.000  H
  C262     1.0000 0.95256  0.49158  0.12548  Biso   1.000  C
  C263     1.0000 0.80145  0.14292  0.17045  Biso   1.000  C
  H294     1.0000 0.73362  0.20459  0.12120  Biso   1.000  H
  H295     1.0000 0.67741  0.19563  0.16709  Biso   1.000  H
  C264     1.0000 0.66007  0.34066  0.08854  Biso   1.000  C
  C265     1.0000 0.98423  0.55924  0.14579  Biso   1.000  C
  C266     1.0000 0.01733  0.43625  0.11493  Biso   1.000  C
  C267     1.0000 0.88907  0.13898  0.15298  Biso   1.000  C
  C268     1.0000 0.77828  0.09359  0.20580  Biso   1.000  C
  C269     1.0000 0.62011  0.41689  0.09622  Biso   1.000  C
  H296     1.0000 0.64662  0.32462  0.05721  Biso   1.000  H
  H297     1.0000 0.63139  0.30463  0.10940  Biso   1.000  H
  H298     1.0000 0.94331  0.59818  0.15229  Biso   1.000  H
  C270     1.0000 0.07382  0.56872  0.15606  Biso   1.000  C
  O39      1.0000 0.98906  0.36887  0.09449  Biso   1.000  O
  C271     1.0000 0.10753  0.44253  0.12829  Biso   1.000  C
  O40      1.0000 0.91211  0.18877  0.11794  Biso   1.000  O
  C272     1.0000 0.95575  0.09262  0.17259  Biso   1.000  C
  H299     1.0000 0.71982  0.09479  0.21801  Biso   1.000  H
  C273     1.0000 0.84129  0.04214  0.22333  Biso   1.000  C
  C274     1.0000 0.51788  0.41603  0.08955  Biso   1.000  C
  H300     1.0000 0.63397  0.43379  0.12739  Biso   1.000  H
  H301     1.0000 0.64702  0.45309  0.07481  Biso   1.000  H
  C275     1.0000 0.13458  0.51116  0.14855  Biso   1.000  C
  H302     1.0000 0.09380  0.61491  0.16830  Biso   1.000  H
  C276     1.0000 0.97064  0.37258  0.04593  Biso   1.000  C
  C277     1.0000 0.16864  0.37372  0.12628  Biso   1.000  C
  C278     1.0000 0.92312  0.15531  0.07388  Biso   1.000  C
  C279     1.0000 0.92931  0.04391  0.20746  Biso   1.000  C
  C280     1.0000 0.05458  0.10575  0.16111  Biso   1.000  C
  H303     1.0000 0.82409  0.00668  0.24571  Biso   1.000  H
  H304     1.0000 0.49110  0.37960  0.11030  Biso   1.000  H
  H305     1.0000 0.49368  0.46583  0.09591  Biso   1.000  H
  H306     1.0000 0.50401  0.40210  0.05821  Biso   1.000  H
  H307     1.0000 0.19508  0.51779  0.15710  Biso   1.000  H
  H308     1.0000 0.92489  0.33472  0.03829  Biso   1.000  H
  H309     1.0000 0.94549  0.42243  0.03881  Biso   1.000  H
  C281     1.0000 0.05010  0.35990  0.01740  Biso   1.000  C
  C282     1.0000 0.13628  0.31388  0.16045  Biso   1.000  C
  H310     1.0000 0.16823  0.35260  0.09529  Biso   1.000  H
  H311     1.0000 0.23042  0.38863  0.13372  Biso   1.000  H
  H312     1.0000 0.96493  0.18609  0.05579  Biso   1.000  H
  H313     1.0000 0.94984  0.10501  0.07751  Biso   1.000  H
  C283     1.0000 0.83449  0.14818  0.04811  Biso   1.000  C
  H314     1.0000 0.97200  0.01142  0.22060  Biso   1.000  H
  C284     1.0000 0.08286  0.18449  0.17726  Biso   1.000  C
  H315     1.0000 0.09169  0.06732  0.17619  Biso   1.000  H
  H316     1.0000 0.06369  0.10141  0.12801  Biso   1.000  H
  C285     1.0000 0.03439  0.35528  0.96904  Biso   1.000  C
  H317     1.0000 0.07878  0.31280  0.02729  Biso   1.000  H
  H318     1.0000 0.09278  0.40113  0.02300  Biso   1.000  H
  C286     1.0000 0.12262  0.23794  0.14776  Biso   1.000  C
  C287     1.0000 0.11351  0.33404  0.20535  Biso   1.000  C
  C288     1.0000 0.84258  0.12248  0.00135  Biso   1.000  C
  H319     1.0000 0.80472  0.19762  0.04811  Biso   1.000  H
  H320     1.0000 0.79547  0.11289  0.06471  Biso   1.000  H
  C289     1.0000 0.06267  0.20750  0.22202  Biso   1.000  C
  H321     1.0000 0.99742  0.39759  0.95950  Biso   1.000  H
  H322     1.0000 0.09142  0.35688  0.95300  Biso   1.000  H
  H323     1.0000 0.00367  0.30829  0.96209  Biso   1.000  H
  O41      1.0000 0.14505  0.21555  0.10311  Biso   1.000  O
  C290     1.0000 0.07864  0.28156  0.23661  Biso   1.000  C
  H324     1.0000 0.12181  0.38429  0.21479  Biso   1.000  H
  H325     1.0000 0.87262  0.07377  0.00080  Biso   1.000  H
  H326     1.0000 0.78324  0.11763  0.98789  Biso   1.000  H
  H327     1.0000 0.87751  0.15868  0.98392  Biso   1.000  H
  H328     1.0000 0.03800  0.17250  0.24260  Biso   1.000  H
  C291     1.0000 0.23593  0.18729  0.09968  Biso   1.000  C
  C292     1.0000 0.05587  0.30560  0.28352  Biso   1.000  C
  H329     1.0000 0.27862  0.22772  0.10701  Biso   1.000  H
  H330     1.0000 0.24483  0.14612  0.12171  Biso   1.000  H
  C293     1.0000 0.25279  0.15902  0.05199  Biso   1.000  C
  O42      1.0000 0.02454  0.26512  0.31323  Biso   1.000  O
  H331     1.0000 0.06641  0.35642  0.29109  Biso   1.000  H
  C294     1.0000 0.21173  0.09090  0.04061  Biso   1.000  C
  H332     1.0000 0.31790  0.15320  0.04790  Biso   1.000  H
  H333     1.0000 0.23240  0.19768  0.03030  Biso   1.000  H
  H334     1.0000 0.15232  0.10078  0.02819  Biso   1.000  H
  H335     1.0000 0.24782  0.06481  0.01792  Biso   1.000  H
  H336     1.0000 0.20629  0.05973  0.06769  Biso   1.000  H
  O43      1.0000 0.13370  0.56906  0.69926  Biso   1.000  O
  C295     1.0000 0.15443  0.62810  0.71773  Biso   1.000  C
  C296     1.0000 0.17013  0.63844  0.76712  Biso   1.000  C
  H337     1.0000 0.16103  0.67082  0.69891  Biso   1.000  H
  C297     1.0000 0.15226  0.58054  0.79880  Biso   1.000  C
  C298     1.0000 0.20493  0.70713  0.78327  Biso   1.000  C
  H338     1.0000 0.12520  0.53560  0.78860  Biso   1.000  H
  C299     1.0000 0.17360  0.58819  0.84519  Biso   1.000  C
  H339     1.0000 0.21248  0.74739  0.76269  Biso   1.000  H
  C300     1.0000 0.22859  0.71730  0.82910  Biso   1.000  C
  C301     1.0000 0.21635  0.65597  0.85899  Biso   1.000  C
  C302     1.0000 0.14763  0.52590  0.87894  Biso   1.000  C
  C303     1.0000 0.26230  0.79501  0.84532  Biso   1.000  C
  O44      1.0000 0.24273  0.66237  0.90454  Biso   1.000  O
  H340     1.0000 0.18278  0.48021  0.87261  Biso   1.000  H
  H341     1.0000 0.16103  0.54223  0.91031  Biso   1.000  H
  C304     1.0000 0.04744  0.50842  0.87452  Biso   1.000  C
  C305     1.0000 0.19855  0.85708  0.82955  Biso   1.000  C
  H342     1.0000 0.26638  0.79541  0.87880  Biso   1.000  H
  H343     1.0000 0.32259  0.80443  0.83291  Biso   1.000  H
  C306     1.0000 0.33993  0.65940  0.91146  Biso   1.000  C
  C307     1.0000 0.01577  0.44082  0.85421  Biso   1.000  C
  C308     1.0000 0.98267  0.56375  0.88507  Biso   1.000  C
  C309     1.0000 0.11093  0.86102  0.84702  Biso   1.000  C
  C310     1.0000 0.22172  0.90647  0.79420  Biso   1.000  C
  H344     1.0000 0.35338  0.67538  0.94279  Biso   1.000  H
  H345     1.0000 0.36861  0.69543  0.89060  Biso   1.000  H
  C311     1.0000 0.37989  0.58311  0.90378  Biso   1.000  C
  H346     1.0000 0.05669  0.40182  0.84771  Biso   1.000  H
  C312     1.0000 0.92618  0.43128  0.84394  Biso   1.000  C
  O45      1.0000 0.01094  0.63119  0.90551  Biso   1.000  O
  C313     1.0000 0.89254  0.55747  0.87171  Biso   1.000  C
  O46      1.0000 0.08789  0.81123  0.88206  Biso   1.000  O
  C314     1.0000 0.04432  0.90744  0.82741  Biso   1.000  C
  H347     1.0000 0.28018  0.90521  0.78199  Biso   1.000  H
  C315     1.0000 0.15871  0.95786  0.77667  Biso   1.000  C
  H348     1.0000 0.36603  0.56621  0.87261  Biso   1.000  H
  H349     1.0000 0.35298  0.54691  0.92519  Biso   1.000  H
  C316     1.0000 0.48212  0.58402  0.91045  Biso   1.000  C
  C317     1.0000 0.86542  0.48884  0.85145  Biso   1.000  C
  H350     1.0000 0.90620  0.38509  0.83170  Biso   1.000  H
  C318     1.0000 0.02943  0.62742  0.95407  Biso   1.000  C
  C319     1.0000 0.83136  0.62628  0.87372  Biso   1.000  C
  C320     1.0000 0.07688  0.84469  0.92612  Biso   1.000  C
  C321     1.0000 0.07069  0.95609  0.79254  Biso   1.000  C
  C322     1.0000 0.94542  0.89431  0.83889  Biso   1.000  C
  H351     1.0000 0.17591  0.99332  0.75429  Biso   1.000  H
  H352     1.0000 0.50890  0.62040  0.88970  Biso   1.000  H
  H353     1.0000 0.50632  0.53423  0.90409  Biso   1.000  H
  H354     1.0000 0.49599  0.59790  0.94179  Biso   1.000  H
  H355     1.0000 0.80492  0.48221  0.84290  Biso   1.000  H
  H356     1.0000 0.07511  0.66533  0.96171  Biso   1.000  H
  H357     1.0000 0.05451  0.57763  0.96119  Biso   1.000  H
  C323     1.0000 0.94990  0.64010  0.98260  Biso   1.000  C
  C324     1.0000 0.86372  0.68612  0.83955  Biso   1.000  C
  H358     1.0000 0.83184  0.64740  0.90471  Biso   1.000  H
  H359     1.0000 0.76958  0.61143  0.86628  Biso   1.000  H
  H360     1.0000 0.03507  0.81391  0.94421  Biso   1.000  H
  H361     1.0000 0.05023  0.89499  0.92249  Biso   1.000  H
  C325     1.0000 0.16551  0.85182  0.95189  Biso   1.000  C
  H362     1.0000 0.02800  0.98864  0.77940  Biso   1.000  H
  C326     1.0000 0.91714  0.81551  0.82274  Biso   1.000  C
  H363     1.0000 0.90831  0.93274  0.82381  Biso   1.000  H
  H364     1.0000 0.93631  0.89859  0.87199  Biso   1.000  H
  H365     1.0000 0.92122  0.68720  0.97271  Biso   1.000  H
  H366     1.0000 0.90722  0.59893  0.97700  Biso   1.000  H
  C327     1.0000 0.96561  0.64472  0.03096  Biso   1.000  C
  C328     1.0000 0.87738  0.76212  0.85224  Biso   1.000  C
  C329     1.0000 0.88649  0.66596  0.79465  Biso   1.000  C
  C330     1.0000 0.15742  0.87752  0.99865  Biso   1.000  C
  H367     1.0000 0.19528  0.80243  0.95189  Biso   1.000  H
  H368     1.0000 0.20453  0.88711  0.93529  Biso   1.000  H
  C331     1.0000 0.93733  0.79250  0.77798  Biso   1.000  C
  H369     1.0000 0.90858  0.64312  0.04700  Biso   1.000  H
  H370     1.0000 0.99633  0.69171  0.03791  Biso   1.000  H
  H371     1.0000 0.00258  0.60241  0.04050  Biso   1.000  H
  O47      1.0000 0.85495  0.78445  0.89689  Biso   1.000  O
  C332     1.0000 0.92136  0.71844  0.76339  Biso   1.000  C
  H372     1.0000 0.87819  0.61571  0.78521  Biso   1.000  H
  H373     1.0000 0.12738  0.92623  0.99920  Biso   1.000  H
  H374     1.0000 0.21683  0.88243  0.01211  Biso   1.000  H
  H375     1.0000 0.12249  0.84132  0.01608  Biso   1.000  H
  H376     1.0000 0.96200  0.82750  0.75740  Biso   1.000  H
  C333     1.0000 0.76414  0.81271  0.90032  Biso   1.000  C
  C334     1.0000 0.94413  0.69440  0.71648  Biso   1.000  C
  H377     1.0000 0.72138  0.77234  0.89299  Biso   1.000  H
  H378     1.0000 0.75523  0.85394  0.87829  Biso   1.000  H
  C335     1.0000 0.74721  0.84103  0.94801  Biso   1.000  C
  O48      1.0000 0.97546  0.73488  0.68677  Biso   1.000  O
  H379     1.0000 0.93359  0.64364  0.70891  Biso   1.000  H
  C336     1.0000 0.78834  0.90910  0.95939  Biso   1.000  C
  H380     1.0000 0.68210  0.84680  0.95210  Biso   1.000  H
  H381     1.0000 0.76760  0.80232  0.96970  Biso   1.000  H
  H382     1.0000 0.84768  0.89922  0.97181  Biso   1.000  H
  H383     1.0000 0.75218  0.93519  0.98208  Biso   1.000  H
  H384     1.0000 0.79371  0.94033  0.93231  Biso   1.000  H
