data_image0
_cell_length_a       18.289
_cell_length_b       31.753
_cell_length_c       19.041
_cell_angle_alpha    90
_cell_angle_beta     101.35
_cell_angle_gamma    90

_symmetry_space_group_name_H-M    "P 1"
_symmetry_int_tables_number       1

loop_
  _symmetry_equiv_pos_as_xyz
  'x, y, z'

loop_
  _atom_site_label
  _atom_site_occupancy
  _atom_site_fract_x
  _atom_site_fract_y
  _atom_site_fract_z
  _atom_site_thermal_displace_type
  _atom_site_B_iso_or_equiv
  _atom_site_type_symbol
  C1       1.0000 0.62033  0.54181  0.57273  Biso   1.000  C
  C2       1.0000 0.63678  0.58810  0.58071  Biso   1.000  C
  H1       1.0000 0.65831  0.52751  0.54219  Biso   1.000  H
  H2       1.0000 0.56370  0.53749  0.54241  Biso   1.000  H
  C3       1.0000 0.62768  0.51960  0.64279  Biso   1.000  C
  C4       1.0000 0.63188  0.61459  0.51118  Biso   1.000  C
  C5       1.0000 0.71578  0.59591  0.62308  Biso   1.000  C
  H3       1.0000 0.59789  0.60171  0.61108  Biso   1.000  H
  H4       1.0000 0.68182  0.52729  0.67589  Biso   1.000  H
  H5       1.0000 0.58483  0.53110  0.67032  Biso   1.000  H
  C6       1.0000 0.62091  0.47170  0.63561  Biso   1.000  C
  C7       1.0000 0.61328  0.59349  0.44331  Biso   1.000  C
  C8       1.0000 0.64190  0.65521  0.50963  Biso   1.000  C
  C9       1.0000 0.73539  0.62041  0.68650  Biso   1.000  C
  C10      1.0000 0.77762  0.57909  0.59828  Biso   1.000  C
  H6       1.0000 0.56572  0.46389  0.60508  Biso   1.000  H
  H7       1.0000 0.66198  0.46030  0.60578  Biso   1.000  H
  C11      1.0000 0.63282  0.44931  0.70841  Biso   1.000  C
  C12      1.0000 0.61172  0.61490  0.38101  Biso   1.000  C
  H8       1.0000 0.60048  0.56029  0.44170  Biso   1.000  H
  C13      1.0000 0.64200  0.68019  0.44819  Biso   1.000  C
  O1       1.0000 0.66659  0.67738  0.57648  Biso   1.000  O
  O2       1.0000 0.67800  0.63660  0.71891  Biso   1.000  O
  C14      1.0000 0.80559  0.62640  0.72142  Biso   1.000  C
  C15      1.0000 0.85219  0.58429  0.63052  Biso   1.000  C
  H9       1.0000 0.76593  0.56039  0.55001  Biso   1.000  H
  H10      1.0000 0.59022  0.45961  0.73749  Biso   1.000  H
  H11      1.0000 0.68712  0.45791  0.73990  Biso   1.000  H
  C16      1.0000 0.62881  0.40201  0.69978  Biso   1.000  C
  C17      1.0000 0.60088  0.59330  0.30570  Biso   1.000  C
  C18      1.0000 0.62429  0.65701  0.38658  Biso   1.000  C
  H12      1.0000 0.65448  0.71351  0.44958  Biso   1.000  H
  C19      1.0000 0.61532  0.68249  0.62142  Biso   1.000  C
  C20      1.0000 0.62657  0.66419  0.68859  Biso   1.000  C
  H13      1.0000 0.81682  0.64451  0.77038  Biso   1.000  H
  C21      1.0000 0.86401  0.60911  0.69378  Biso   1.000  C
  C22      1.0000 0.91441  0.56741  0.59903  Biso   1.000  C
  H14      1.0000 0.57458  0.39351  0.66781  Biso   1.000  H
  H15      1.0000 0.67140  0.39190  0.67070  Biso   1.000  H
  C23      1.0000 0.64002  0.37861  0.77129  Biso   1.000  C
  C24      1.0000 0.58508  0.54719  0.30731  Biso   1.000  C
  H16      1.0000 0.55347  0.60829  0.27099  Biso   1.000  H
  C25      1.0000 0.67148  0.60271  0.27452  Biso   1.000  C
  O3       1.0000 0.62958  0.68019  0.32059  Biso   1.000  O
  C26      1.0000 0.55489  0.71080  0.59731  Biso   1.000  C
  C27      1.0000 0.57617  0.67641  0.73508  Biso   1.000  C
  O4       1.0000 0.93788  0.61619  0.73171  Biso   1.000  O
  C28      1.0000 0.91482  0.59311  0.52789  Biso   1.000  C
  H17      1.0000 0.96621  0.57469  0.63620  Biso   1.000  H
  C29      1.0000 0.91162  0.52061  0.58938  Biso   1.000  C
  H18      1.0000 0.61172  0.39558  0.80799  Biso   1.000  H
  H19      1.0000 0.61683  0.34699  0.76272  Biso   1.000  H
  H20      1.0000 0.69939  0.37659  0.79422  Biso   1.000  H
  C30      1.0000 0.57339  0.52811  0.23210  Biso   1.000  C
  H21      1.0000 0.63160  0.53141  0.34191  Biso   1.000  H
  H22      1.0000 0.53530  0.54209  0.32959  Biso   1.000  H
  C31      1.0000 0.67358  0.62952  0.22230  Biso   1.000  C
  C32      1.0000 0.74072  0.58590  0.30741  Biso   1.000  C
  C33      1.0000 0.56532  0.69001  0.27169  Biso   1.000  C
  O5       1.0000 0.54999  0.73039  0.54032  Biso   1.000  O
  C34      1.0000 0.49681  0.71801  0.64022  Biso   1.000  C
  C35      1.0000 0.51022  0.69940  0.71050  Biso   1.000  C
  O6       1.0000 0.59200  0.66340  0.79952  Biso   1.000  O
  C36      1.0000 0.98138  0.64561  0.71451  Biso   1.000  C
  C37      1.0000 0.90441  0.57220  0.46131  Biso   1.000  C
  C38      1.0000 0.91300  0.63481  0.52993  Biso   1.000  C
  H23      1.0000 0.86010  0.51189  0.55301  Biso   1.000  H
  H24      1.0000 0.95827  0.51041  0.56571  Biso   1.000  H
  C39      1.0000 0.91538  0.49850  0.66218  Biso   1.000  C
  C40      1.0000 0.54791  0.48260  0.22889  Biso   1.000  C
  H25      1.0000 0.62548  0.53009  0.21282  Biso   1.000  H
  H26      1.0000 0.53189  0.54681  0.19632  Biso   1.000  H
  O7       1.0000 0.60591  0.64690  0.17730  Biso   1.000  O
  C41      1.0000 0.73719  0.63909  0.19332  Biso   1.000  C
  H27      1.0000 0.74269  0.56590  0.35359  Biso   1.000  H
  C42      1.0000 0.80598  0.59339  0.28411  Biso   1.000  C
  C43      1.0000 0.55562  0.67219  0.20328  Biso   1.000  C
  N1       1.0000 0.51663  0.71420  0.29370  Biso   1.000  N
  C44      1.0000 0.43288  0.74031  0.61403  Biso   1.000  C
  C45      1.0000 0.45631  0.70831  0.75372  Biso   1.000  C
  C46      1.0000 0.97670  0.66479  0.64231  Biso   1.000  C
  N2       1.0000 0.03767  0.65559  0.76508  Biso   1.000  N
  C47      1.0000 0.89781  0.59749  0.39789  Biso   1.000  C
  H28      1.0000 0.90161  0.53831  0.45809  Biso   1.000  H
  C48      1.0000 0.90498  0.66110  0.46838  Biso   1.000  C
  O8       1.0000 0.90969  0.65679  0.59410  Biso   1.000  O
  H29      1.0000 0.87207  0.51151  0.68779  Biso   1.000  H
  H30      1.0000 0.96911  0.50550  0.69652  Biso   1.000  H
  C49      1.0000 0.90571  0.45079  0.65661  Biso   1.000  C
  C50      1.0000 0.57998  0.44812  0.27999  Biso   1.000  C
  H31      1.0000 0.59123  0.46509  0.26472  Biso   1.000  H
  H32      1.0000 0.49850  0.48169  0.25299  Biso   1.000  H
  C51      1.0000 0.52903  0.45700  0.15941  Biso   1.000  C
  H33      1.0000 0.55218  0.47129  0.17580  Biso   1.000  H
  H34      1.0000 0.48852  0.48351  0.22990  Biso   1.000  H
  C52      1.0000 0.80239  0.62070  0.22921  Biso   1.000  C
  H35      1.0000 0.73499  0.65921  0.14709  Biso   1.000  H
  C53      1.0000 0.88020  0.57579  0.32450  Biso   1.000  C
  N3       1.0000 0.50120  0.68271  0.15250  Biso   1.000  N
  C54      1.0000 0.45640  0.72620  0.24099  Biso   1.000  C
  H36      1.0000 0.42328  0.75319  0.56051  Biso   1.000  H
  C55      1.0000 0.37980  0.74629  0.65811  Biso   1.000  C
  C56      1.0000 0.39079  0.73080  0.72721  Biso   1.000  C
  H37      1.0000 0.46650  0.69729  0.80852  Biso   1.000  H
  N4       1.0000 0.02171  0.69121  0.62742  Biso   1.000  N
  C57      1.0000 0.08749  0.68510  0.74992  Biso   1.000  C
  C58      1.0000 0.90048  0.63849  0.40292  Biso   1.000  C
  H38      1.0000 0.90262  0.69499  0.47100  Biso   1.000  H
  H39      1.0000 0.94601  0.43760  0.62752  Biso   1.000  H
  H40      1.0000 0.84991  0.44330  0.62710  Biso   1.000  H
  C59      1.0000 0.91710  0.43130  0.73117  Biso   1.000  C
  C60      1.0000 0.88400  0.42450  0.71692  Biso   1.000  C
  H41      1.0000 0.86378  0.44459  0.60861  Biso   1.000  H
  H42      1.0000 0.95813  0.43791  0.64691  Biso   1.000  H
  C61      1.0000 0.52898  0.40979  0.25819  Biso   1.000  C
  H43      1.0000 0.63721  0.44109  0.27538  Biso   1.000  H
  H44      1.0000 0.57959  0.45719  0.33521  Biso   1.000  H
  C62      1.0000 0.52423  0.40919  0.16080  Biso   1.000  C
  H45      1.0000 0.57020  0.46509  0.12738  Biso   1.000  H
  H46      1.0000 0.47529  0.46840  0.13011  Biso   1.000  H
  O9       1.0000 0.86438  0.62980  0.19632  Biso   1.000  O
  H47      1.0000 0.92330  0.58489  0.29520  Biso   1.000  H
  C63      1.0000 0.87861  0.52770  0.32739  Biso   1.000  C
  C64      1.0000 0.44708  0.71039  0.16830  Biso   1.000  C
  C65      1.0000 0.40362  0.75580  0.25669  Biso   1.000  C
  H48      1.0000 0.32929  0.76349  0.63711  Biso   1.000  H
  H49      1.0000 0.34982  0.73590  0.75999  Biso   1.000  H
  C66      1.0000 0.08119  0.70441  0.68179  Biso   1.000  C
  C67      1.0000 0.14530  0.69880  0.80681  Biso   1.000  C
  O10      1.0000 0.88282  0.66450  0.34100  Biso   1.000  O
  H50      1.0000 0.92530  0.39741  0.72850  Biso   1.000  H
  H51      1.0000 0.96562  0.44509  0.76621  Biso   1.000  H
  C68      1.0000 0.84598  0.44119  0.75871  Biso   1.000  C
  H52      1.0000 0.90367  0.39221  0.71339  Biso   1.000  H
  C69      1.0000 0.91799  0.44260  0.79101  Biso   1.000  C
  H53      1.0000 0.82350  0.42361  0.71012  Biso   1.000  H
  C70      1.0000 0.50998  0.39401  0.32798  Biso   1.000  C
  H54      1.0000 0.49588  0.39880  0.20312  Biso   1.000  H
  H55      1.0000 0.55829  0.38570  0.23339  Biso   1.000  H
  H56      1.0000 0.47888  0.41902  0.22048  Biso   1.000  H
  H57      1.0000 0.57968  0.39530  0.16991  Biso   1.000  H
  C71      1.0000 0.47720  0.39599  0.08340  Biso   1.000  C
  C72      1.0000 0.92370  0.65200  0.23151  Biso   1.000  C
  H58      1.0000 0.93150  0.51630  0.35819  Biso   1.000  H
  H59      1.0000 0.83450  0.51771  0.35471  Biso   1.000  H
  C73      1.0000 0.86489  0.50770  0.25058  Biso   1.000  C
  C74      1.0000 0.39041  0.72431  0.11372  Biso   1.000  C
  C75      1.0000 0.34651  0.76931  0.19969  Biso   1.000  C
  C76      1.0000 0.40678  0.77489  0.32788  Biso   1.000  C
  C77      1.0000 0.13258  0.73300  0.66550  Biso   1.000  C
  C78      1.0000 0.15270  0.68160  0.88351  Biso   1.000  C
  C79      1.0000 0.19041  0.73039  0.79481  Biso   1.000  C
  C80      1.0000 0.93711  0.66740  0.29938  Biso   1.000  C
  H60      1.0000 0.79709  0.43180  0.71917  Biso   1.000  H
  H61      1.0000 0.84232  0.47488  0.76862  Biso   1.000  H
  C81      1.0000 0.84903  0.41681  0.82802  Biso   1.000  C
  C82      1.0000 0.90498  0.42979  0.86600  Biso   1.000  C
  H62      1.0000 0.90428  0.47611  0.78731  Biso   1.000  H
  H63      1.0000 0.97792  0.44059  0.79529  Biso   1.000  H
  H64      1.0000 0.47160  0.36711  0.31652  Biso   1.000  H
  H65      1.0000 0.56079  0.38330  0.36409  Biso   1.000  H
  H66      1.0000 0.48388  0.41870  0.35348  Biso   1.000  H
  H67      1.0000 0.46590  0.36230  0.08271  Biso   1.000  H
  H68      1.0000 0.42468  0.41332  0.07258  Biso   1.000  H
  H69      1.0000 0.50928  0.40349  0.04248  Biso   1.000  H
  C83      1.0000 0.98009  0.66019  0.18411  Biso   1.000  C
  H70      1.0000 0.90858  0.51800  0.22310  Biso   1.000  H
  H71      1.0000 0.81171  0.51891  0.21999  Biso   1.000  H
  C84      1.0000 0.86389  0.45860  0.25342  Biso   1.000  C
  C85      1.0000 0.38149  0.70601  0.03712  Biso   1.000  C
  C86      1.0000 0.33992  0.75319  0.12909  Biso   1.000  C
  H72      1.0000 0.30689  0.79259  0.21019  Biso   1.000  H
  N5       1.0000 0.33758  0.78730  0.33891  Biso   1.000  N
  C87      1.0000 0.47260  0.78150  0.37850  Biso   1.000  C
  C88      1.0000 0.18648  0.74670  0.72282  Biso   1.000  C
  C89      1.0000 0.13239  0.75420  0.59490  Biso   1.000  C
  N6       1.0000 0.16961  0.71181  0.93430  Biso   1.000  N
  C90      1.0000 0.14833  0.64120  0.89471  Biso   1.000  C
  H73      1.0000 0.22948  0.74390  0.83900  Biso   1.000  H
  C91      1.0000 0.00279  0.68929  0.32691  Biso   1.000  C
  H74      1.0000 0.87452  0.43631  0.87318  Biso   1.000  H
  H75      1.0000 0.79290  0.40809  0.83322  Biso   1.000  H
  H76      1.0000 0.88248  0.38840  0.82690  Biso   1.000  H
  H77      1.0000 0.89490  0.39599  0.86669  Biso   1.000  H
  H78      1.0000 0.95462  0.43750  0.90601  Biso   1.000  H
  H79      1.0000 0.85720  0.44670  0.87778  Biso   1.000  H
  O11      1.0000 0.96429  0.64750  0.12111  Biso   1.000  O
  C92      1.0000 0.04862  0.68431  0.21169  Biso   1.000  C
  H80      1.0000 0.91499  0.44771  0.28829  Biso   1.000  H
  H81      1.0000 0.86342  0.44629  0.19991  Biso   1.000  H
  C93      1.0000 0.79630  0.44071  0.28090  Biso   1.000  C
  C94      1.0000 0.37668  0.66551  0.02700  Biso   1.000  C
  N7       1.0000 0.37488  0.73650  0.98966  Biso   1.000  N
  H82      1.0000 0.29489  0.76371  0.08731  Biso   1.000  H
  C95      1.0000 0.33488  0.80651  0.40019  Biso   1.000  C
  C96      1.0000 0.46711  0.80329  0.44219  Biso   1.000  C
  H83      1.0000 0.52572  0.77042  0.36928  Biso   1.000  H
  H84      1.0000 0.22661  0.77001  0.71371  Biso   1.000  H
  N8       1.0000 0.19951  0.76840  0.58730  Biso   1.000  N
  C97      1.0000 0.06829  0.75810  0.54118  Biso   1.000  C
  C98      1.0000 0.18493  0.69650  0.00372  Biso   1.000  C
  C99      1.0000 0.16321  0.62718  0.97029  Biso   1.000  C
  H85      1.0000 0.13440  0.61900  0.85100  Biso   1.000  H
  O12      1.0000 0.01378  0.70482  0.39017  Biso   1.000  O
  C100     1.0000 0.06049  0.69701  0.28481  Biso   1.000  C
  C101     1.0000 0.09882  0.69080  0.16552  Biso   1.000  C
  H86      1.0000 0.74591  0.45489  0.24978  Biso   1.000  H
  H87      1.0000 0.80060  0.45060  0.33629  Biso   1.000  H
  C102     1.0000 0.78682  0.39291  0.27758  Biso   1.000  C
  H88      1.0000 0.38517  0.64410  0.07189  Biso   1.000  H
  C103     1.0000 0.35947  0.64961  0.95367  Biso   1.000  C
  C104     1.0000 0.36437  0.72330  0.91858  Biso   1.000  C
  H89      1.0000 0.28102  0.81539  0.41058  Biso   1.000  H
  C105     1.0000 0.39881  0.81599  0.45252  Biso   1.000  C
  H90      1.0000 0.51648  0.80969  0.48220  Biso   1.000  H
  C106     1.0000 0.20259  0.79070  0.52709  Biso   1.000  C
  C107     1.0000 0.07380  0.78071  0.47920  Biso   1.000  C
  H91      1.0000 0.01618  0.74399  0.54728  Biso   1.000  H
  H92      1.0000 0.19971  0.71820  0.04780  Biso   1.000  H
  C108     1.0000 0.18192  0.65739  0.01652  Biso   1.000  C
  H93      1.0000 0.15890  0.59472  0.98583  Biso   1.000  H
  C109     1.0000 0.12751  0.71959  0.31009  Biso   1.000  C
  C110     1.0000 0.16350  0.71218  0.19621  Biso   1.000  C
  H94      1.0000 0.08789  0.68000  0.11061  Biso   1.000  H
  H95      1.0000 0.77988  0.38431  0.22128  Biso   1.000  H
  H96      1.0000 0.84009  0.37971  0.30431  Biso   1.000  H
  C111     1.0000 0.72628  0.36831  0.30688  Biso   1.000  C
  C112     1.0000 0.35648  0.68129  0.90010  Biso   1.000  C
  H97      1.0000 0.34997  0.61660  0.94118  Biso   1.000  H
  H98      1.0000 0.36250  0.74661  0.87691  Biso   1.000  H
  H99      1.0000 0.39372  0.83309  0.50030  Biso   1.000  H
  H100     1.0000 0.25501  0.80499  0.52221  Biso   1.000  H
  C113     1.0000 0.14202  0.79599  0.47191  Biso   1.000  C
  H101     1.0000 0.02509  0.78600  0.43790  Biso   1.000  H
  H102     1.0000 0.19652  0.64810  0.07201  Biso   1.000  H
  H103     1.0000 0.13810  0.73171  0.36419  Biso   1.000  H
  C114     1.0000 0.18070  0.72670  0.26708  Biso   1.000  C
  H104     1.0000 0.20378  0.71811  0.16279  Biso   1.000  H
  H105     1.0000 0.73873  0.36929  0.36521  Biso   1.000  H
  H106     1.0000 0.67198  0.38270  0.28711  Biso   1.000  H
  H107     1.0000 0.72551  0.33568  0.28899  Biso   1.000  H
  H108     1.0000 0.34791  0.67231  0.84439  Biso   1.000  H
  H109     1.0000 0.14818  0.81199  0.42328  Biso   1.000  H
  H110     1.0000 0.23263  0.74270  0.28781  Biso   1.000  H
  C115     1.0000 0.37969  0.45819  0.42729  Biso   1.000  C
  C116     1.0000 0.36319  0.41190  0.41931  Biso   1.000  C
  H111     1.0000 0.34170  0.47249  0.45777  Biso   1.000  H
  H112     1.0000 0.43632  0.46251  0.45761  Biso   1.000  H
  C117     1.0000 0.37227  0.48040  0.35718  Biso   1.000  C
  C118     1.0000 0.28418  0.40409  0.37689  Biso   1.000  C
  C119     1.0000 0.36807  0.38541  0.48879  Biso   1.000  C
  H113     1.0000 0.40211  0.39829  0.38889  Biso   1.000  H
  H114     1.0000 0.31819  0.47271  0.32407  Biso   1.000  H
  H115     1.0000 0.41519  0.46890  0.32970  Biso   1.000  H
  C120     1.0000 0.37911  0.52830  0.36441  Biso   1.000  C
  C121     1.0000 0.26458  0.37959  0.31352  Biso   1.000  C
  C122     1.0000 0.22239  0.42091  0.40169  Biso   1.000  C
  C123     1.0000 0.35812  0.34479  0.49040  Biso   1.000  C
  C124     1.0000 0.38669  0.40651  0.55671  Biso   1.000  C
  H116     1.0000 0.43429  0.53611  0.39489  Biso   1.000  H
  H117     1.0000 0.33797  0.53970  0.39419  Biso   1.000  H
  C125     1.0000 0.36720  0.55069  0.29161  Biso   1.000  C
  O13      1.0000 0.32202  0.36340  0.28111  Biso   1.000  O
  C126     1.0000 0.19438  0.37360  0.27860  Biso   1.000  C
  C127     1.0000 0.14777  0.41571  0.36950  Biso   1.000  C
  H118     1.0000 0.23409  0.43961  0.45001  Biso   1.000  H
  O14      1.0000 0.33342  0.32262  0.42349  Biso   1.000  O
  C128     1.0000 0.35801  0.31981  0.55178  Biso   1.000  C
  C129     1.0000 0.38830  0.38510  0.61901  Biso   1.000  C
  H119     1.0000 0.39949  0.43971  0.55832  Biso   1.000  H
  H120     1.0000 0.40980  0.54039  0.26253  Biso   1.000  H
  H121     1.0000 0.31291  0.54209  0.26012  Biso   1.000  H
  C130     1.0000 0.37120  0.59799  0.30018  Biso   1.000  C
  C131     1.0000 0.37338  0.33581  0.31138  Biso   1.000  C
  H122     1.0000 0.18319  0.35549  0.22958  Biso   1.000  H
  C132     1.0000 0.13600  0.39089  0.30618  Biso   1.000  C
  C133     1.0000 0.08561  0.43259  0.40099  Biso   1.000  C
  C134     1.0000 0.38470  0.31751  0.37860  Biso   1.000  C
  C135     1.0000 0.37572  0.34299  0.61338  Biso   1.000  C
  H123     1.0000 0.34548  0.28649  0.55039  Biso   1.000  H
  C136     1.0000 0.39908  0.40670  0.69432  Biso   1.000  C
  H124     1.0000 0.42539  0.60649  0.33222  Biso   1.000  H
  H125     1.0000 0.32862  0.60810  0.32932  Biso   1.000  H
  C137     1.0000 0.36000  0.62139  0.22873  Biso   1.000  C
  C138     1.0000 0.42378  0.32359  0.26488  Biso   1.000  C
  O15      1.0000 0.06208  0.38381  0.26831  Biso   1.000  O
  C139     1.0000 0.08519  0.40689  0.47208  Biso   1.000  C
  H126     1.0000 0.03381  0.42531  0.36382  Biso   1.000  H
  C140     1.0000 0.08839  0.47939  0.41058  Biso   1.000  C
  C141     1.0000 0.44508  0.28920  0.40271  Biso   1.000  C
  O16      1.0000 0.37038  0.31981  0.67938  Biso   1.000  O
  H127     1.0000 0.44648  0.39171  0.72898  Biso   1.000  H
  C142     1.0000 0.41488  0.45281  0.69271  Biso   1.000  C
  C143     1.0000 0.32848  0.39729  0.72550  Biso   1.000  C
  H128     1.0000 0.38829  0.60442  0.19198  Biso   1.000  H
  H129     1.0000 0.38319  0.65301  0.23730  Biso   1.000  H
  H130     1.0000 0.30057  0.62341  0.20580  Biso   1.000  H
  O17      1.0000 0.40802  0.33660  0.20050  Biso   1.000  O
  C144     1.0000 0.48980  0.30060  0.28952  Biso   1.000  C
  C145     1.0000 0.01858  0.35439  0.28551  Biso   1.000  C
  C146     1.0000 0.08702  0.36519  0.47009  Biso   1.000  C
  C147     1.0000 0.09562  0.42780  0.53871  Biso   1.000  C
  H131     1.0000 0.13992  0.48811  0.44701  Biso   1.000  H
  H132     1.0000 0.04169  0.48959  0.43431  Biso   1.000  H
  C148     1.0000 0.08457  0.50150  0.33779  Biso   1.000  C
  O18      1.0000 0.44998  0.26961  0.45970  Biso   1.000  O
  C149     1.0000 0.50321  0.28199  0.35980  Biso   1.000  C
  C150     1.0000 0.43469  0.30999  0.72828  Biso   1.000  C
  H133     1.0000 0.36843  0.46859  0.65811  Biso   1.000  H
  H134     1.0000 0.46471  0.45791  0.67038  Biso   1.000  H
  C151     1.0000 0.42663  0.47189  0.76792  Biso   1.000  C
  C152     1.0000 0.32639  0.37048  0.77772  Biso   1.000  C
  C153     1.0000 0.25930  0.41410  0.69261  Biso   1.000  C
  C154     1.0000 0.54371  0.29169  0.24630  Biso   1.000  C
  C155     1.0000 0.02332  0.33521  0.35771  Biso   1.000  C
  N9       1.0000 0.96228  0.34441  0.23489  Biso   1.000  N
  O19      1.0000 0.09028  0.34321  0.40592  Biso   1.000  O
  C156     1.0000 0.09498  0.33890  0.53159  Biso   1.000  C
  C157     1.0000 0.10220  0.40251  0.60208  Biso   1.000  C
  H135     1.0000 0.09841  0.46169  0.54193  Biso   1.000  H
  H136     1.0000 0.12788  0.48849  0.31218  Biso   1.000  H
  H137     1.0000 0.03091  0.49450  0.30350  Biso   1.000  H
  C158     1.0000 0.09431  0.54921  0.34341  Biso   1.000  C
  C159     1.0000 0.56709  0.25969  0.38600  Biso   1.000  C
  N10      1.0000 0.48339  0.28580  0.70632  Biso   1.000  N
  C160     1.0000 0.44439  0.32781  0.79668  Biso   1.000  C
  H138     1.0000 0.37448  0.46991  0.78720  Biso   1.000  H
  H139     1.0000 0.46808  0.45319  0.80370  Biso   1.000  H
  C161     1.0000 0.45210  0.51740  0.77108  Biso   1.000  C
  O20      1.0000 0.39412  0.35310  0.82272  Biso   1.000  O
  C162     1.0000 0.26278  0.36091  0.80670  Biso   1.000  C
  H140     1.0000 0.25732  0.43410  0.64638  Biso   1.000  H
  C163     1.0000 0.19398  0.40661  0.71591  Biso   1.000  C
  C164     1.0000 0.60918  0.26920  0.27281  Biso   1.000  C
  H141     1.0000 0.53352  0.30271  0.19150  Biso   1.000  H
  N11      1.0000 0.97831  0.30879  0.37260  Biso   1.000  N
  C165     1.0000 0.91253  0.31490  0.25010  Biso   1.000  C
  H142     1.0000 0.09740  0.30501  0.52902  Biso   1.000  H
  C166     1.0000 0.09949  0.36151  0.59710  Biso   1.000  C
  C167     1.0000 0.11982  0.42421  0.67552  Biso   1.000  C
  H143     1.0000 0.05401  0.56240  0.37250  Biso   1.000  H
  H144     1.0000 0.15012  0.55670  0.37293  Biso   1.000  H
  C168     1.0000 0.08291  0.56870  0.26879  Biso   1.000  C
  C169     1.0000 0.11602  0.57550  0.28310  Biso   1.000  C
  H145     1.0000 0.13619  0.55541  0.39141  Biso   1.000  H
  H146     1.0000 0.04189  0.56209  0.35311  Biso   1.000  H
  H147     1.0000 0.57668  0.24681  0.43951  Biso   1.000  H
  C170     1.0000 0.62022  0.25371  0.34191  Biso   1.000  C
  C171     1.0000 0.54361  0.27380  0.75897  Biso   1.000  C
  N12      1.0000 0.49882  0.31729  0.84752  Biso   1.000  N
  H148     1.0000 0.40879  0.53491  0.73530  Biso   1.000  H
  H149     1.0000 0.50151  0.51831  0.74698  Biso   1.000  H
  C172     1.0000 0.47099  0.54300  0.84061  Biso   1.000  C
  H150     1.0000 0.44779  0.52871  0.82422  Biso   1.000  H
  H151     1.0000 0.51150  0.51649  0.77012  Biso   1.000  H
  C173     1.0000 0.41998  0.55188  0.71998  Biso   1.000  C
  C174     1.0000 0.19758  0.37930  0.77081  Biso   1.000  C
  H152     1.0000 0.26502  0.34079  0.85288  Biso   1.000  H
  H153     1.0000 0.65019  0.26410  0.23997  Biso   1.000  H
  C175     1.0000 0.91882  0.29559  0.31818  Biso   1.000  C
  C176     1.0000 0.85472  0.30120  0.19321  Biso   1.000  C
  O21      1.0000 0.11720  0.33550  0.65902  Biso   1.000  O
  H154     1.0000 0.07672  0.41511  0.70482  Biso   1.000  H
  C177     1.0000 0.12141  0.47230  0.67263  Biso   1.000  C
  H155     1.0000 0.07472  0.60259  0.27153  Biso   1.000  H
  H156     1.0000 0.03440  0.55491  0.23381  Biso   1.000  H
  C178     1.0000 0.15399  0.55881  0.24131  Biso   1.000  C
  H157     1.0000 0.09628  0.60779  0.28658  Biso   1.000  H
  C179     1.0000 0.08203  0.55740  0.20901  Biso   1.000  C
  H158     1.0000 0.17652  0.57639  0.28990  Biso   1.000  H
  H159     1.0000 0.67073  0.23651  0.36291  Biso   1.000  H
  C180     1.0000 0.55288  0.28961  0.83172  Biso   1.000  C
  C181     1.0000 0.59639  0.24420  0.74328  Biso   1.000  C
  C182     1.0000 0.47579  0.59081  0.83922  Biso   1.000  C
  H160     1.0000 0.42981  0.53491  0.87259  Biso   1.000  H
  H161     1.0000 0.52468  0.53160  0.86991  Biso   1.000  H
  C183     1.0000 0.47098  0.59021  0.74178  Biso   1.000  C
  H162     1.0000 0.36280  0.55891  0.72458  Biso   1.000  H
  H163     1.0000 0.42037  0.54281  0.66481  Biso   1.000  H
  O22      1.0000 0.13558  0.37020  0.80370  Biso   1.000  O
  C184     1.0000 0.86738  0.26700  0.33452  Biso   1.000  C
  C185     1.0000 0.84732  0.31840  0.11651  Biso   1.000  C
  C186     1.0000 0.80961  0.26961  0.20521  Biso   1.000  C
  C187     1.0000 0.06290  0.33260  0.70059  Biso   1.000  C
  H164     1.0000 0.06852  0.48370  0.64183  Biso   1.000  H
  H165     1.0000 0.16552  0.48229  0.64531  Biso   1.000  H
  C188     1.0000 0.13512  0.49230  0.74939  Biso   1.000  C
  H166     1.0000 0.20292  0.56820  0.28079  Biso   1.000  H
  H167     1.0000 0.15770  0.52512  0.23140  Biso   1.000  H
  C189     1.0000 0.15099  0.58319  0.17200  Biso   1.000  C
  C190     1.0000 0.09499  0.57021  0.13402  Biso   1.000  C
  H168     1.0000 0.09569  0.52389  0.21271  Biso   1.000  H
  H169     1.0000 0.02209  0.55941  0.20468  Biso   1.000  H
  C191     1.0000 0.60961  0.27569  0.88630  Biso   1.000  C
  C192     1.0000 0.65350  0.23069  0.80027  Biso   1.000  C
  C193     1.0000 0.59317  0.22511  0.67209  Biso   1.000  C
  H170     1.0000 0.42029  0.60470  0.83011  Biso   1.000  H
  H171     1.0000 0.50409  0.60120  0.79690  Biso   1.000  H
  C194     1.0000 0.52282  0.60401  0.91662  Biso   1.000  C
  H172     1.0000 0.44172  0.61430  0.76658  Biso   1.000  H
  H173     1.0000 0.52108  0.58098  0.77949  Biso   1.000  H
  C195     1.0000 0.48997  0.60599  0.67198  Biso   1.000  C
  C196     1.0000 0.07632  0.34800  0.76851  Biso   1.000  C
  C197     1.0000 0.81348  0.25330  0.27720  Biso   1.000  C
  C198     1.0000 0.86763  0.24580  0.40512  Biso   1.000  C
  N13      1.0000 0.83041  0.28819  0.06573  Biso   1.000  N
  C199     1.0000 0.85169  0.35880  0.10531  Biso   1.000  C
  H174     1.0000 0.77048  0.25610  0.16102  Biso   1.000  H
  C200     1.0000 0.99718  0.31071  0.67311  Biso   1.000  C
  H175     1.0000 0.09139  0.48200  0.77692  Biso   1.000  H
  H176     1.0000 0.18831  0.48109  0.78003  Biso   1.000  H
  C201     1.0000 0.13608  0.54140  0.74660  Biso   1.000  C
  H177     1.0000 0.12549  0.56369  0.12679  Biso   1.000  H
  H178     1.0000 0.20712  0.59191  0.16680  Biso   1.000  H
  H179     1.0000 0.11749  0.61160  0.17312  Biso   1.000  H
  H180     1.0000 0.10512  0.60401  0.13333  Biso   1.000  H
  H181     1.0000 0.04540  0.56250  0.09401  Biso   1.000  H
  H182     1.0000 0.14281  0.55330  0.12218  Biso   1.000  H
  C202     1.0000 0.61847  0.29399  0.96290  Biso   1.000  C
  C203     1.0000 0.66010  0.24681  0.87093  Biso   1.000  C
  H183     1.0000 0.69307  0.20741  0.78977  Biso   1.000  H
  N14      1.0000 0.66239  0.21270  0.66111  Biso   1.000  N
  C204     1.0000 0.52742  0.21850  0.62152  Biso   1.000  C
  H184     1.0000 0.53412  0.63770  0.91731  Biso   1.000  H
  H185     1.0000 0.57527  0.58668  0.92739  Biso   1.000  H
  H186     1.0000 0.49068  0.59651  0.95749  Biso   1.000  H
  H187     1.0000 0.52842  0.63289  0.68350  Biso   1.000  H
  H188     1.0000 0.43922  0.61670  0.63588  Biso   1.000  H
  H189     1.0000 0.51608  0.58130  0.64649  Biso   1.000  H
  C205     1.0000 0.01993  0.33981  0.81591  Biso   1.000  C
  H190     1.0000 0.77341  0.22999  0.28631  Biso   1.000  H
  N15      1.0000 0.80051  0.23160  0.41272  Biso   1.000  N
  C206     1.0000 0.93172  0.24190  0.45879  Biso   1.000  C
  C207     1.0000 0.81509  0.30350  0.99630  Biso   1.000  C
  C208     1.0000 0.83680  0.37282  0.02968  Biso   1.000  C
  H191     1.0000 0.86563  0.38100  0.14902  Biso   1.000  H
  O23      1.0000 0.98623  0.29518  0.60979  Biso   1.000  O
  C209     1.0000 0.93948  0.30299  0.71521  Biso   1.000  C
  H192     1.0000 0.08502  0.55229  0.71168  Biso   1.000  H
  H193     1.0000 0.13660  0.55371  0.80011  Biso   1.000  H
  C210     1.0000 0.20372  0.55929  0.71912  Biso   1.000  C
  C211     1.0000 0.62328  0.33449  0.97302  Biso   1.000  C
  N16      1.0000 0.62513  0.26350  0.01030  Biso   1.000  N
  H194     1.0000 0.70508  0.23629  0.91271  Biso   1.000  H
  C212     1.0000 0.66507  0.19349  0.59978  Biso   1.000  C
  C213     1.0000 0.53290  0.19671  0.55778  Biso   1.000  C
  H195     1.0000 0.47429  0.22958  0.63068  Biso   1.000  H
  O24      1.0000 0.03568  0.35250  0.87891  Biso   1.000  O
  C214     1.0000 0.95139  0.31569  0.78827  Biso   1.000  C
  C215     1.0000 0.79742  0.20930  0.47288  Biso   1.000  C
  C216     1.0000 0.92622  0.21929  0.52082  Biso   1.000  C
  H196     1.0000 0.98378  0.25601  0.45268  Biso   1.000  H
  H197     1.0000 0.80030  0.28180  0.95217  Biso   1.000  H
  C217     1.0000 0.81810  0.34261  0.98350  Biso   1.000  C
  H198     1.0000 0.84112  0.40528  0.01419  Biso   1.000  H
  C218     1.0000 0.87250  0.28041  0.68987  Biso   1.000  C
  H199     1.0000 0.25410  0.54511  0.75019  Biso   1.000  H
  H200     1.0000 0.19941  0.54940  0.66368  Biso   1.000  H
  C219     1.0000 0.21319  0.60709  0.72239  Biso   1.000  C
  H201     1.0000 0.61478  0.35590  0.92808  Biso   1.000  H
  C220     1.0000 0.64054  0.35039  0.04630  Biso   1.000  C
  C221     1.0000 0.63560  0.27670  0.08144  Biso   1.000  C
  H202     1.0000 0.71899  0.18461  0.58938  Biso   1.000  H
  C222     1.0000 0.60122  0.18401  0.54750  Biso   1.000  C
  H203     1.0000 0.48348  0.19031  0.51782  Biso   1.000  H
  C223     1.0000 0.90120  0.30920  0.83450  Biso   1.000  C
  H204     1.0000 0.74501  0.19501  0.47781  Biso   1.000  H
  C224     1.0000 0.85800  0.20401  0.52811  Biso   1.000  C
  H205     1.0000 0.97493  0.21400  0.56212  Biso   1.000  H
  H206     1.0000 0.80349  0.35190  0.92795  Biso   1.000  H
  H207     1.0000 0.86192  0.26829  0.63583  Biso   1.000  H
  C225     1.0000 0.81931  0.27330  0.73289  Biso   1.000  C
  H208     1.0000 0.22008  0.61569  0.77869  Biso   1.000  H
  H209     1.0000 0.15988  0.62029  0.69571  Biso   1.000  H
  C226     1.0000 0.27367  0.63169  0.69309  Biso   1.000  C
  C227     1.0000 0.64354  0.31871  0.09992  Biso   1.000  C
  H210     1.0000 0.65005  0.38340  0.05884  Biso   1.000  H
  H211     1.0000 0.63752  0.25339  0.12311  Biso   1.000  H
  H212     1.0000 0.60630  0.16691  0.49972  Biso   1.000  H
  C228     1.0000 0.83652  0.28782  0.80381  Biso   1.000  C
  H213     1.0000 0.91213  0.32000  0.88941  Biso   1.000  H
  H214     1.0000 0.85183  0.18801  0.57669  Biso   1.000  H
  H215     1.0000 0.76739  0.25730  0.71221  Biso   1.000  H
  H216     1.0000 0.26129  0.63071  0.63481  Biso   1.000  H
  H217     1.0000 0.32798  0.61730  0.71291  Biso   1.000  H
  H218     1.0000 0.27450  0.66432  0.71098  Biso   1.000  H
  H219     1.0000 0.65211  0.32769  0.15563  Biso   1.000  H
  H220     1.0000 0.79617  0.28189  0.83718  Biso   1.000  H
  C229     1.0000 0.66351  0.78780  0.69619  Biso   1.000  C
  C230     1.0000 0.68072  0.77331  0.76712  Biso   1.000  C
  H221     1.0000 0.70380  0.78191  0.66282  Biso   1.000  H
  C231     1.0000 0.59882  0.80921  0.66550  Biso   1.000  C
  C232     1.0000 0.62751  0.78040  0.81008  Biso   1.000  C
  H222     1.0000 0.73258  0.75731  0.78779  Biso   1.000  H
  H223     1.0000 0.58790  0.81999  0.61060  Biso   1.000  H
  C233     1.0000 0.54857  0.81570  0.71168  Biso   1.000  C
  C234     1.0000 0.56049  0.80301  0.78479  Biso   1.000  C
  H224     1.0000 0.63811  0.76831  0.86418  Biso   1.000  H
  C235     1.0000 0.48010  0.83979  0.68409  Biso   1.000  C
  C236     1.0000 0.50280  0.81070  0.82690  Biso   1.000  C
  O25      1.0000 0.46429  0.85249  0.62110  Biso   1.000  O
  C237     1.0000 0.42370  0.84801  0.73149  Biso   1.000  C
  O26      1.0000 0.51380  0.79520  0.89021  Biso   1.000  O
  C238     1.0000 0.43713  0.83261  0.79942  Biso   1.000  C
  O27      1.0000 0.36439  0.87019  0.69630  Biso   1.000  O
  O28      1.0000 0.38282  0.83551  0.84098  Biso   1.000  O
  C239     1.0000 0.30239  0.87929  0.72919  Biso   1.000  C
  C240     1.0000 0.40048  0.86149  0.90291  Biso   1.000  C
  C241     1.0000 0.23719  0.86090  0.69330  Biso   1.000  C
  C242     1.0000 0.30599  0.90659  0.78410  Biso   1.000  C
  C243     1.0000 0.40499  0.83891  0.96842  Biso   1.000  C
  C244     1.0000 0.39782  0.90250  0.89792  Biso   1.000  C
  H225     1.0000 0.23499  0.84080  0.64708  Biso   1.000  H
  C245     1.0000 0.17358  0.87050  0.72228  Biso   1.000  C
  C246     1.0000 0.24072  0.91409  0.80740  Biso   1.000  C
  C247     1.0000 0.38021  0.92420  0.82449  Biso   1.000  C
  H226     1.0000 0.40262  0.80499  0.97099  Biso   1.000  H
  C248     1.0000 0.41300  0.86521  0.02991  Biso   1.000  C
  C249     1.0000 0.40441  0.92779  0.96129  Biso   1.000  C
  O29      1.0000 0.10591  0.85308  0.67729  Biso   1.000  O
  C250     1.0000 0.17149  0.89730  0.77451  Biso   1.000  C
  H227     1.0000 0.24270  0.93408  0.85362  Biso   1.000  H
  H228     1.0000 0.42330  0.91509  0.79518  Biso   1.000  H
  C251     1.0000 0.37861  0.97229  0.82738  Biso   1.000  C
  O30      1.0000 0.40970  0.84320  0.09414  Biso   1.000  O
  C252     1.0000 0.41484  0.90691  0.02793  Biso   1.000  C
  H229     1.0000 0.40162  0.96170  0.95808  Biso   1.000  H
  C253     1.0000 0.05558  0.82780  0.70332  Biso   1.000  C
  C254     1.0000 0.10089  0.90669  0.80568  Biso   1.000  C
  H230     1.0000 0.43151  0.98369  0.85818  Biso   1.000  H
  H231     1.0000 0.33451  0.98230  0.85470  Biso   1.000  H
  C255     1.0000 0.36491  0.99232  0.75062  Biso   1.000  C
  C256     1.0000 0.47672  0.83520  0.14234  Biso   1.000  C
  C257     1.0000 0.41442  0.93260  0.09901  Biso   1.000  C
  N17      1.0000 0.00121  0.81731  0.65249  Biso   1.000  N
  C258     1.0000 0.06528  0.81000  0.77172  Biso   1.000  C
  C259     1.0000 0.11173  0.88511  0.88100  Biso   1.000  C
  H232     1.0000 0.05349  0.89170  0.77103  Biso   1.000  H
  C260     1.0000 0.08509  0.95279  0.80729  Biso   1.000  C
  H233     1.0000 0.40859  0.98199  0.72309  Biso   1.000  H
  H234     1.0000 0.31172  0.98110  0.71998  Biso   1.000  H
  C261     1.0000 0.36389  0.04141  0.75340  Biso   1.000  C
  N18      1.0000 0.52172  0.80881  0.12740  Biso   1.000  N
  C262     1.0000 0.48144  0.85441  0.21450  Biso   1.000  C
  H235     1.0000 0.46623  0.92530  0.13624  Biso   1.000  H
  C263     1.0000 0.41164  0.97940  0.08942  Biso   1.000  C
  C264     1.0000 0.35220  0.91569  0.13051  Biso   1.000  C
  C265     1.0000 0.94709  0.78959  0.66829  Biso   1.000  C
  O31      1.0000 0.12958  0.81980  0.82057  Biso   1.000  O
  N19      1.0000 0.01658  0.78582  0.79368  Biso   1.000  N
  C266     1.0000 0.12431  0.84301  0.88662  Biso   1.000  C
  C267     1.0000 0.11328  0.90650  0.94329  Biso   1.000  C
  H236     1.0000 0.13160  0.96860  0.84189  Biso   1.000  H
  H237     1.0000 0.03530  0.95789  0.82957  Biso   1.000  H
  C268     1.0000 0.07340  0.97191  0.73208  Biso   1.000  C
  H238     1.0000 0.41500  0.05231  0.78827  Biso   1.000  H
  H239     1.0000 0.36337  0.05370  0.69989  Biso   1.000  H
  C269     1.0000 0.29631  0.05930  0.78088  Biso   1.000  C
  C270     1.0000 0.58120  0.79561  0.18182  Biso   1.000  C
  O32      1.0000 0.43795  0.88379  0.23175  Biso   1.000  O
  N20      1.0000 0.53774  0.84439  0.26512  Biso   1.000  N
  H240     1.0000 0.36010  0.98810  0.05300  Biso   1.000  H
  H241     1.0000 0.45835  0.98961  0.06575  Biso   1.000  H
  C271     1.0000 0.41540  0.00151  0.16222  Biso   1.000  C
  C272     1.0000 0.36402  0.89091  0.19382  Biso   1.000  C
  C273     1.0000 0.27764  0.92089  0.09831  Biso   1.000  C
  C274     1.0000 0.89041  0.77571  0.61370  Biso   1.000  C
  C275     1.0000 0.95640  0.77379  0.74098  Biso   1.000  C
  C276     1.0000 0.14201  0.81980  0.94822  Biso   1.000  C
  H242     1.0000 0.10049  0.93969  0.94169  Biso   1.000  H
  C277     1.0000 0.13190  0.88540  0.01122  Biso   1.000  C
  H243     1.0000 0.12549  0.96989  0.71280  Biso   1.000  H
  H244     1.0000 0.03189  0.95320  0.69630  Biso   1.000  H
  C278     1.0000 0.04792  0.01742  0.72892  Biso   1.000  C
  H245     1.0000 0.24593  0.04510  0.74981  Biso   1.000  H
  H246     1.0000 0.30062  0.04941  0.83632  Biso   1.000  H
  C279     1.0000 0.28678  0.10711  0.77762  Biso   1.000  C
  C280     1.0000 0.58750  0.81492  0.24990  Biso   1.000  C
  C281     1.0000 0.63260  0.76701  0.16554  Biso   1.000  C
  H247     1.0000 0.37214  0.98851  0.18782  Biso   1.000  H
  H248     1.0000 0.46912  0.99449  0.19650  Biso   1.000  H
  C282     1.0000 0.40573  0.04919  0.15665  Biso   1.000  C
  C283     1.0000 0.30559  0.87359  0.22141  Biso   1.000  C
  H249     1.0000 0.26593  0.93960  0.05000  Biso   1.000  H
  C284     1.0000 0.21579  0.90410  0.12311  Biso   1.000  C
  C285     1.0000 0.88150  0.79400  0.53710  Biso   1.000  C
  C286     1.0000 0.83992  0.74680  0.62908  Biso   1.000  C
  C287     1.0000 0.90359  0.74421  0.75672  Biso   1.000  C
  H250     1.0000 0.15449  0.78651  0.94961  Biso   1.000  H
  C288     1.0000 0.14191  0.84480  0.00961  Biso   1.000  C
  C289     1.0000 0.13685  0.91191  0.08074  Biso   1.000  C
  H251     1.0000 0.99850  0.01830  0.75297  Biso   1.000  H
  H252     1.0000 0.98852  0.01650  0.72989  Biso   1.000  H
  H253     1.0000 0.09118  0.03489  0.76471  Biso   1.000  H
  C290     1.0000 0.02898  0.04299  0.65940  Biso   1.000  C
  H254     1.0000 0.05218  0.02869  0.67579  Biso   1.000  H
  C291     1.0000 0.07999  0.05190  0.78003  Biso   1.000  C
  H255     1.0000 0.27989  0.11571  0.72132  Biso   1.000  H
  H256     1.0000 0.34009  0.12030  0.80429  Biso   1.000  H
  C292     1.0000 0.22630  0.13170  0.80692  Biso   1.000  C
  C293     1.0000 0.64531  0.80122  0.30685  Biso   1.000  C
  C294     1.0000 0.68649  0.75331  0.22280  Biso   1.000  C
  C295     1.0000 0.63241  0.74579  0.09494  Biso   1.000  C
  H257     1.0000 0.44601  0.06239  0.12751  Biso   1.000  H
  H258     1.0000 0.34992  0.05669  0.12713  Biso   1.000  H
  C296     1.0000 0.41712  0.06869  0.23121  Biso   1.000  C
  C297     1.0000 0.38401  0.07549  0.21691  Biso   1.000  C
  H259     1.0000 0.36384  0.05540  0.10860  Biso   1.000  H
  H260     1.0000 0.45813  0.06210  0.14690  Biso   1.000  H
  C298     1.0000 0.23540  0.87960  0.18654  Biso   1.000  C
  H261     1.0000 0.31684  0.85551  0.27042  Biso   1.000  H
  N21      1.0000 0.87490  0.76349  0.48970  Biso   1.000  N
  C299     1.0000 0.87669  0.83450  0.52698  Biso   1.000  C
  H262     1.0000 0.79489  0.73631  0.58730  Biso   1.000  H
  C300     1.0000 0.84651  0.73070  0.69968  Biso   1.000  C
  C301     1.0000 0.90680  0.72510  0.82791  Biso   1.000  C
  O33      1.0000 0.16660  0.82260  0.07651  Biso   1.000  O
  H263     1.0000 0.09791  0.89831  0.11112  Biso   1.000  H
  C302     1.0000 0.12033  0.95821  0.07271  Biso   1.000  C
  H264     1.0000 0.97529  0.03159  0.63009  Biso   1.000  H
  C303     1.0000 0.02418  0.09079  0.66079  Biso   1.000  C
  H265     1.0000 0.07021  0.03489  0.62742  Biso   1.000  H
  C304     1.0000 0.02900  0.09020  0.75822  Biso   1.000  C
  H266     1.0000 0.13723  0.05889  0.77542  Biso   1.000  H
  H267     1.0000 0.07960  0.04280  0.83520  Biso   1.000  H
  H268     1.0000 0.23868  0.13070  0.86520  Biso   1.000  H
  H269     1.0000 0.17199  0.11731  0.78710  Biso   1.000  H
  H270     1.0000 0.22553  0.16430  0.78902  Biso   1.000  H
  C305     1.0000 0.65271  0.81841  0.38350  Biso   1.000  C
  C306     1.0000 0.69043  0.76960  0.29485  Biso   1.000  C
  H271     1.0000 0.72662  0.73001  0.21369  Biso   1.000  H
  N22      1.0000 0.69952  0.73158  0.08733  Biso   1.000  N
  C307     1.0000 0.56831  0.74191  0.04121  Biso   1.000  C
  H272     1.0000 0.42532  0.10260  0.22853  Biso   1.000  H
  H273     1.0000 0.46563  0.05489  0.26624  Biso   1.000  H
  C308     1.0000 0.34605  0.05880  0.25874  Biso   1.000  C
  H274     1.0000 0.40374  0.10780  0.21343  Biso   1.000  H
  C309     1.0000 0.41801  0.05741  0.29104  Biso   1.000  C
  H275     1.0000 0.32351  0.07640  0.21011  Biso   1.000  H
  O34      1.0000 0.17802  0.86341  0.21894  Biso   1.000  O
  C310     1.0000 0.86438  0.77671  0.41862  Biso   1.000  C
  C311     1.0000 0.85949  0.85041  0.45370  Biso   1.000  C
  H276     1.0000 0.88519  0.85589  0.57192  Biso   1.000  H
  H277     1.0000 0.80689  0.70740  0.71018  Biso   1.000  H
  N23      1.0000 0.83758  0.71269  0.83889  Biso   1.000  N
  C312     1.0000 0.97260  0.71851  0.87848  Biso   1.000  C
  C313     1.0000 0.11533  0.81750  0.12140  Biso   1.000  C
  H278     1.0000 0.15832  0.97251  0.04223  Biso   1.000  H
  H279     1.0000 0.06372  0.96249  0.04244  Biso   1.000  H
  C314     1.0000 0.12770  0.98041  0.14283  Biso   1.000  C
  H280     1.0000 0.99589  0.10119  0.70310  Biso   1.000  H
  C315     1.0000 0.97721  0.10399  0.58339  Biso   1.000  C
  H281     1.0000 0.07968  0.10471  0.66989  Biso   1.000  H
  H282     1.0000 0.97889  0.08100  0.72051  Biso   1.000  H
  H283     1.0000 0.05831  0.11429  0.73342  Biso   1.000  H
  C316     1.0000 0.01000  0.10601  0.82802  Biso   1.000  C
  N24      1.0000 0.66963  0.78821  0.43433  Biso   1.000  N
  C317     1.0000 0.64834  0.85878  0.39475  Biso   1.000  C
  H284     1.0000 0.72950  0.75609  0.33904  Biso   1.000  H
  C318     1.0000 0.70261  0.70929  0.02712  Biso   1.000  C
  C319     1.0000 0.57380  0.71930  0.97918  Biso   1.000  C
  H285     1.0000 0.51625  0.75599  0.04732  Biso   1.000  H
  H286     1.0000 0.29711  0.06821  0.21921  Biso   1.000  H
  H287     1.0000 0.34233  0.02510  0.26860  Biso   1.000  H
  C320     1.0000 0.34903  0.08320  0.32800  Biso   1.000  C
  C321     1.0000 0.40505  0.07020  0.36604  Biso   1.000  C
  H288     1.0000 0.40433  0.02390  0.28729  Biso   1.000  H
  H289     1.0000 0.47794  0.05940  0.29533  Biso   1.000  H
  C322     1.0000 0.12664  0.83580  0.18863  Biso   1.000  C
  H290     1.0000 0.86250  0.75341  0.37689  Biso   1.000  H
  C323     1.0000 0.85648  0.81869  0.40008  Biso   1.000  C
  H291     1.0000 0.84999  0.88341  0.44122  Biso   1.000  H
  C324     1.0000 0.83489  0.69351  0.90017  Biso   1.000  C
  H292     1.0000 0.02568  0.72960  0.86932  Biso   1.000  H
  C325     1.0000 0.96713  0.69669  0.94222  Biso   1.000  C
  C326     1.0000 0.05489  0.78919  0.09730  Biso   1.000  C
  H293     1.0000 0.18183  0.97270  0.17593  Biso   1.000  H
  H294     1.0000 0.08483  0.96888  0.17031  Biso   1.000  H
  C327     1.0000 0.12092  0.02831  0.13560  Biso   1.000  C
  H295     1.0000 0.96591  0.13769  0.58269  Biso   1.000  H
  H296     1.0000 0.92470  0.08670  0.57262  Biso   1.000  H
  H297     1.0000 0.00929  0.09649  0.54251  Biso   1.000  H
  H298     1.0000 0.97161  0.13290  0.81650  Biso   1.000  H
  H299     1.0000 0.98389  0.08132  0.85352  Biso   1.000  H
  H300     1.0000 0.06081  0.11671  0.86412  Biso   1.000  H
  C328     1.0000 0.68494  0.80351  0.50370  Biso   1.000  C
  C329     1.0000 0.66323  0.87280  0.47033  Biso   1.000  C
  H301     1.0000 0.63441  0.88099  0.35104  Biso   1.000  H
  C330     1.0000 0.64203  0.70400  0.97190  Biso   1.000  C
  H302     1.0000 0.75502  0.69499  0.02220  Biso   1.000  H
  H303     1.0000 0.52510  0.71401  0.93788  Biso   1.000  H
  H304     1.0000 0.37453  0.06371  0.37321  Biso   1.000  H
  H305     1.0000 0.29290  0.09190  0.33320  Biso   1.000  H
  H306     1.0000 0.38255  0.11161  0.32693  Biso   1.000  H
  H307     1.0000 0.39491  0.10399  0.36673  Biso   1.000  H
  H308     1.0000 0.45463  0.06251  0.40600  Biso   1.000  H
  H309     1.0000 0.35722  0.05329  0.37782  Biso   1.000  H
  C331     1.0000 0.07624  0.82361  0.23512  Biso   1.000  C
  H310     1.0000 0.84791  0.82770  0.34437  Biso   1.000  H
  H311     1.0000 0.78098  0.68460  0.91062  Biso   1.000  H
  C332     1.0000 0.89881  0.68400  0.95251  Biso   1.000  C
  H312     1.0000 0.01649  0.69030  0.98218  Biso   1.000  H
  C333     1.0000 0.99681  0.78200  0.14020  Biso   1.000  C
  O35      1.0000 0.04999  0.76960  0.04030  Biso   1.000  O
  H313     1.0000 0.06573  0.03609  0.10512  Biso   1.000  H
  H314     1.0000 0.16200  0.03971  0.10581  Biso   1.000  H
  C334     1.0000 0.13283  0.05070  0.20844  Biso   1.000  C
  H315     1.0000 0.69972  0.78178  0.54784  Biso   1.000  H
  C335     1.0000 0.68193  0.84260  0.51650  Biso   1.000  C
  H316     1.0000 0.65891  0.90530  0.48581  Biso   1.000  H
  H317     1.0000 0.64820  0.68800  0.92331  Biso   1.000  H
  O36      1.0000 0.09200  0.83661  0.29951  Biso   1.000  O
  C336     1.0000 0.01024  0.80059  0.21053  Biso   1.000  C
  H318     1.0000 0.89374  0.66690  0.00034  Biso   1.000  H
  C337     1.0000 0.93294  0.75971  0.11401  Biso   1.000  C
  H319     1.0000 0.09024  0.04041  0.23753  Biso   1.000  H
  H320     1.0000 0.18713  0.04211  0.23994  Biso   1.000  H
  C338     1.0000 0.12883  0.09801  0.19982  Biso   1.000  C
  H321     1.0000 0.69653  0.85189  0.57200  Biso   1.000  H
  C339     1.0000 0.95631  0.79170  0.25371  Biso   1.000  C
  H322     1.0000 0.92334  0.74680  0.06050  Biso   1.000  H
  C340     1.0000 0.87981  0.75369  0.15815  Biso   1.000  C
  H323     1.0000 0.07465  0.10651  0.16784  Biso   1.000  H
  H324     1.0000 0.17142  0.10808  0.17073  Biso   1.000  H
  C341     1.0000 0.14003  0.12141  0.27133  Biso   1.000  C
  C342     1.0000 0.89080  0.76919  0.22725  Biso   1.000  C
  H325     1.0000 0.96650  0.80270  0.30851  Biso   1.000  H
  H326     1.0000 0.82930  0.73650  0.13710  Biso   1.000  H
  H327     1.0000 0.11174  0.10440  0.30802  Biso   1.000  H
  H328     1.0000 0.11683  0.15299  0.26271  Biso   1.000  H
  H329     1.0000 0.19940  0.12339  0.29420  Biso   1.000  H
  H330     1.0000 0.84984  0.76409  0.26003  Biso   1.000  H
  C343     1.0000 0.33652  0.21220  0.30383  Biso   1.000  C
  C344     1.0000 0.31930  0.22669  0.23290  Biso   1.000  C
  H331     1.0000 0.29622  0.21809  0.33720  Biso   1.000  H
  C345     1.0000 0.40120  0.19079  0.33452  Biso   1.000  C
  C346     1.0000 0.37250  0.21960  0.18989  Biso   1.000  C
  H332     1.0000 0.26738  0.24269  0.21217  Biso   1.000  H
  C347     1.0000 0.45138  0.18430  0.28829  Biso   1.000  C
  H333     1.0000 0.41212  0.18001  0.38942  Biso   1.000  H
  C348     1.0000 0.43952  0.19699  0.21517  Biso   1.000  C
  H334     1.0000 0.36190  0.23169  0.13579  Biso   1.000  H
  C349     1.0000 0.51991  0.16021  0.31588  Biso   1.000  C
  C350     1.0000 0.49723  0.18930  0.17312  Biso   1.000  C
  C351     1.0000 0.57632  0.15199  0.26853  Biso   1.000  C
  O37      1.0000 0.53573  0.14751  0.37892  Biso   1.000  O
  O38      1.0000 0.48622  0.20480  0.10981  Biso   1.000  O
  C352     1.0000 0.56289  0.16739  0.20060  Biso   1.000  C
  O39      1.0000 0.63558  0.12981  0.30372  Biso   1.000  O
  O40      1.0000 0.61719  0.16449  0.15898  Biso   1.000  O
  C353     1.0000 0.69761  0.12071  0.27078  Biso   1.000  C
  C354     1.0000 0.59948  0.13851  0.09711  Biso   1.000  C
  C355     1.0000 0.76283  0.13910  0.30672  Biso   1.000  C
  C356     1.0000 0.69403  0.09341  0.21592  Biso   1.000  C
  C357     1.0000 0.59503  0.16109  0.03160  Biso   1.000  C
  C358     1.0000 0.60220  0.09750  0.10210  Biso   1.000  C
  H335     1.0000 0.76502  0.15920  0.35289  Biso   1.000  H
  C359     1.0000 0.82637  0.12950  0.27769  Biso   1.000  C
  C360     1.0000 0.61980  0.07580  0.17548  Biso   1.000  C
  C361     1.0000 0.75930  0.08591  0.19262  Biso   1.000  C
  H336     1.0000 0.59739  0.19501  0.02898  Biso   1.000  H
  C362     1.0000 0.58695  0.13479  0.97006  Biso   1.000  C
  C363     1.0000 0.59560  0.07221  0.03867  Biso   1.000  C
  O41      1.0000 0.89410  0.14692  0.32268  Biso   1.000  O
  C364     1.0000 0.82848  0.10270  0.22551  Biso   1.000  C
  H337     1.0000 0.57671  0.08491  0.20478  Biso   1.000  H
  C365     1.0000 0.62140  0.02771  0.17259  Biso   1.000  C
  H338     1.0000 0.75732  0.06592  0.14640  Biso   1.000  H
  O42      1.0000 0.59026  0.15680  0.90588  Biso   1.000  O
  C366     1.0000 0.58518  0.09309  0.97209  Biso   1.000  C
  H339     1.0000 0.59839  0.03830  0.04189  Biso   1.000  H
  C367     1.0000 0.94438  0.17220  0.29670  Biso   1.000  C
  C368     1.0000 0.89912  0.09331  0.19428  Biso   1.000  C
  H340     1.0000 0.56850  0.01631  0.14179  Biso   1.000  H
  H341     1.0000 0.66551  0.01770  0.14532  Biso   1.000  H
  C369     1.0000 0.63511  0.00768  0.24940  Biso   1.000  C
  C370     1.0000 0.52330  0.16480  0.85768  Biso   1.000  C
  C371     1.0000 0.58559  0.06740  0.90096  Biso   1.000  C
  N25      1.0000 0.99880  0.18269  0.34748  Biso   1.000  N
  C372     1.0000 0.93469  0.19000  0.22830  Biso   1.000  C
  C373     1.0000 0.88829  0.11489  0.11902  Biso   1.000  C
  H342     1.0000 0.94648  0.10830  0.22899  Biso   1.000  H
  C374     1.0000 0.91492  0.04721  0.19268  Biso   1.000  C
  H343     1.0000 0.59137  0.01801  0.27688  Biso   1.000  H
  H344     1.0000 0.68829  0.01890  0.27999  Biso   1.000  H
  C375     1.0000 0.63613  0.95859  0.24662  Biso   1.000  C
  N26      1.0000 0.47829  0.19119  0.87257  Biso   1.000  N
  C376     1.0000 0.51857  0.14559  0.78547  Biso   1.000  C
  H345     1.0000 0.53379  0.07470  0.86378  Biso   1.000  H
  C377     1.0000 0.58839  0.02060  0.91060  Biso   1.000  C
  C378     1.0000 0.64776  0.08431  0.86946  Biso   1.000  C
  C379     1.0000 0.05292  0.21041  0.33168  Biso   1.000  C
  O43      1.0000 0.87037  0.18020  0.17939  Biso   1.000  O
  N27      1.0000 0.98338  0.21418  0.20628  Biso   1.000  N
  C380     1.0000 0.87571  0.15699  0.11340  Biso   1.000  C
  C381     1.0000 0.88668  0.09350  0.05673  Biso   1.000  C
  H346     1.0000 0.86842  0.03140  0.15813  Biso   1.000  H
  H347     1.0000 0.96471  0.04211  0.17039  Biso   1.000  H
  C382     1.0000 0.92661  0.02809  0.26788  Biso   1.000  C
  H348     1.0000 0.58501  0.94769  0.21169  Biso   1.000  H
  H349     1.0000 0.63658  0.94630  0.30008  Biso   1.000  H
  C383     1.0000 0.70370  0.94070  0.21908  Biso   1.000  C
  C384     1.0000 0.41876  0.20439  0.81820  Biso   1.000  C
  O44      1.0000 0.56207  0.11621  0.76827  Biso   1.000  O
  N28      1.0000 0.46228  0.15561  0.73490  Biso   1.000  N
  C385     1.0000 0.58457  0.99849  0.83780  Biso   1.000  C
  H350     1.0000 0.63985  0.01190  0.94697  Biso   1.000  H
  H351     1.0000 0.54168  0.01039  0.93427  Biso   1.000  H
  C386     1.0000 0.63600  0.10909  0.80620  Biso   1.000  C
  C387     1.0000 0.72237  0.07911  0.90165  Biso   1.000  C
  C388     1.0000 0.10961  0.22429  0.38632  Biso   1.000  C
  C389     1.0000 0.04361  0.22621  0.25899  Biso   1.000  C
  C390     1.0000 0.85801  0.18020  0.05180  Biso   1.000  C
  H352     1.0000 0.89947  0.06031  0.05828  Biso   1.000  H
  C391     1.0000 0.86807  0.11460  0.98880  Biso   1.000  C
  H353     1.0000 0.87453  0.03011  0.28722  Biso   1.000  H
  H354     1.0000 0.96813  0.04680  0.30372  Biso   1.000  H
  C392     1.0000 0.95210  0.98258  0.27110  Biso   1.000  C
  H355     1.0000 0.75409  0.95490  0.25021  Biso   1.000  H
  H356     1.0000 0.69941  0.95059  0.16370  Biso   1.000  H
  C393     1.0000 0.71318  0.89289  0.22241  Biso   1.000  C
  C394     1.0000 0.41246  0.18508  0.75006  Biso   1.000  C
  C395     1.0000 0.36737  0.23299  0.83448  Biso   1.000  C
  C396     1.0000 0.59430  0.95081  0.84337  Biso   1.000  C
  H357     1.0000 0.62788  0.01149  0.81220  Biso   1.000  H
  H358     1.0000 0.53089  0.00551  0.80347  Biso   1.000  H
  C397     1.0000 0.69436  0.12641  0.77856  Biso   1.000  C
  H359     1.0000 0.73408  0.06040  0.94997  Biso   1.000  H
  C398     1.0000 0.78417  0.09590  0.87691  Biso   1.000  C
  C399     1.0000 0.11852  0.20600  0.46292  Biso   1.000  C
  C400     1.0000 0.16009  0.25320  0.37089  Biso   1.000  C
  C401     1.0000 0.09638  0.25579  0.24330  Biso   1.000  C
  H360     1.0000 0.84547  0.21349  0.05041  Biso   1.000  H
  C402     1.0000 0.85805  0.15520  0.99036  Biso   1.000  C
  C403     1.0000 0.86317  0.08809  0.91928  Biso   1.000  C
  H361     1.0000 0.90879  0.96511  0.23531  Biso   1.000  H
  C404     1.0000 0.97099  0.95701  0.34063  Biso   1.000  C
  H362     1.0000 0.94777  0.97131  0.32418  Biso   1.000  H
  C405     1.0000 0.91997  0.94810  0.21999  Biso   1.000  C
  H363     1.0000 0.00151  0.98170  0.24699  Biso   1.000  H
  H364     1.0000 0.01149  0.98350  0.27008  Biso   1.000  H
  H365     1.0000 0.72013  0.88429  0.27870  Biso   1.000  H
  H366     1.0000 0.65992  0.87970  0.19568  Biso   1.000  H
  C406     1.0000 0.77372  0.86830  0.19310  Biso   1.000  C
  C407     1.0000 0.35465  0.19878  0.69317  Biso   1.000  C
  C408     1.0000 0.31347  0.24669  0.77717  Biso   1.000  C
  C409     1.0000 0.36756  0.25421  0.90508  Biso   1.000  C
  H367     1.0000 0.55400  0.93761  0.87246  Biso   1.000  H
  H368     1.0000 0.65010  0.94331  0.87289  Biso   1.000  H
  C410     1.0000 0.58289  0.93131  0.76876  Biso   1.000  C
  C411     1.0000 0.61600  0.92451  0.78306  Biso   1.000  C
  H369     1.0000 0.63617  0.94460  0.89137  Biso   1.000  H
  H370     1.0000 0.54188  0.93790  0.85307  Biso   1.000  H
  C412     1.0000 0.76456  0.12040  0.81348  Biso   1.000  C
  H371     1.0000 0.68318  0.14449  0.72960  Biso   1.000  H
  N29      1.0000 0.12512  0.23651  0.51032  Biso   1.000  N
  C413     1.0000 0.12332  0.16550  0.47299  Biso   1.000  C
  H372     1.0000 0.20513  0.26369  0.41272  Biso   1.000  H
  C414     1.0000 0.15350  0.26930  0.30029  Biso   1.000  C
  C415     1.0000 0.09322  0.27490  0.17211  Biso   1.000  C
  O45      1.0000 0.83335  0.17740  0.92345  Biso   1.000  O
  H373     1.0000 0.90211  0.10169  0.88890  Biso   1.000  H
  C416     1.0000 0.87968  0.04179  0.92726  Biso   1.000  C
  C417     1.0000 0.97578  0.90921  0.33918  Biso   1.000  C
  H374     1.0000 0.92981  0.96511  0.37260  Biso   1.000  H
  H375     1.0000 0.02473  0.96841  0.36993  Biso   1.000  H
  C418     1.0000 0.97103  0.90980  0.24180  Biso   1.000  C
  H376     1.0000 0.86279  0.94111  0.22460  Biso   1.000  H
  H377     1.0000 0.92042  0.95720  0.16482  Biso   1.000  H
  H378     1.0000 0.76129  0.86930  0.13483  Biso   1.000  H
  H379     1.0000 0.82798  0.88269  0.21292  Biso   1.000  H
  H380     1.0000 0.77449  0.83570  0.21100  Biso   1.000  H
  C419     1.0000 0.34730  0.18159  0.61647  Biso   1.000  C
  C420     1.0000 0.30960  0.23040  0.70517  Biso   1.000  C
  H381     1.0000 0.27339  0.26999  0.78627  Biso   1.000  H
  N30      1.0000 0.30050  0.26842  0.91269  Biso   1.000  N
  C421     1.0000 0.43165  0.25809  0.95875  Biso   1.000  C
  H382     1.0000 0.57470  0.89740  0.77149  Biso   1.000  H
  H383     1.0000 0.53439  0.94511  0.73378  Biso   1.000  H
  C422     1.0000 0.65397  0.94120  0.74128  Biso   1.000  C
  H384     1.0000 0.59628  0.89220  0.78659  Biso   1.000  H
  C423     1.0000 0.58196  0.94259  0.70898  Biso   1.000  C
  H385     1.0000 0.67650  0.92360  0.78986  Biso   1.000  H
  O46      1.0000 0.82200  0.13659  0.78108  Biso   1.000  O
  C424     1.0000 0.13558  0.22329  0.58140  Biso   1.000  C
  C425     1.0000 0.14048  0.14959  0.54632  Biso   1.000  C
  H386     1.0000 0.11478  0.14411  0.42810  Biso   1.000  H
  H387     1.0000 0.19312  0.29260  0.28979  Biso   1.000  H
  N31      1.0000 0.16238  0.28731  0.16113  Biso   1.000  N
  C426     1.0000 0.02741  0.28149  0.12149  Biso   1.000  C
  C427     1.0000 0.88468  0.18250  0.87857  Biso   1.000  C
  H388     1.0000 0.84170  0.02749  0.95779  Biso   1.000  H
  H389     1.0000 0.93630  0.03751  0.95758  Biso   1.000  H
  C428     1.0000 0.87227  0.01959  0.85719  Biso   1.000  C
  H390     1.0000 0.92028  0.89529  0.33013  Biso   1.000  H
  H391     1.0000 0.00408  0.89881  0.29692  Biso   1.000  H
  C429     1.0000 0.02280  0.89601  0.41658  Biso   1.000  C
  H392     1.0000 0.94171  0.88571  0.26660  Biso   1.000  H
  C430     1.0000 0.99002  0.89399  0.17200  Biso   1.000  C
  H393     1.0000 0.02113  0.91900  0.27951  Biso   1.000  H
  N32      1.0000 0.33039  0.21179  0.56569  Biso   1.000  N
  C431     1.0000 0.35168  0.14122  0.60527  Biso   1.000  C
  H394     1.0000 0.27047  0.24391  0.66098  Biso   1.000  H
  C432     1.0000 0.29736  0.29071  0.97290  Biso   1.000  C
  C433     1.0000 0.42621  0.28070  0.02078  Biso   1.000  C
  H395     1.0000 0.48377  0.24401  0.95270  Biso   1.000  H
  H396     1.0000 0.70285  0.93179  0.78076  Biso   1.000  H
  H397     1.0000 0.65768  0.97490  0.73137  Biso   1.000  H
  C434     1.0000 0.65098  0.91680  0.67196  Biso   1.000  C
  C435     1.0000 0.59497  0.92980  0.63398  Biso   1.000  C
  H398     1.0000 0.59567  0.97610  0.71267  Biso   1.000  H
  H399     1.0000 0.52208  0.94060  0.70469  Biso   1.000  H
  C436     1.0000 0.87338  0.16420  0.81139  Biso   1.000  C
  H400     1.0000 0.13751  0.24659  0.62308  Biso   1.000  H
  C437     1.0000 0.14347  0.18131  0.59988  Biso   1.000  C
  H401     1.0000 0.14998  0.11659  0.55880  Biso   1.000  H
  C438     1.0000 0.16512  0.30649  0.09979  Biso   1.000  C
  H402     1.0000 0.97429  0.27040  0.13070  Biso   1.000  H
  C439     1.0000 0.03289  0.30331  0.05780  Biso   1.000  C
  C440     1.0000 0.94506  0.21081  0.90267  Biso   1.000  C
  C441     1.0000 0.87909  0.97169  0.86437  Biso   1.000  C
  H403     1.0000 0.81819  0.02730  0.82409  Biso   1.000  H
  H404     1.0000 0.91518  0.03112  0.82966  Biso   1.000  H
  H405     1.0000 0.99073  0.90351  0.45751  Biso   1.000  H
  H406     1.0000 0.03410  0.86231  0.41728  Biso   1.000  H
  H407     1.0000 0.07532  0.91330  0.42740  Biso   1.000  H
  H408     1.0000 0.93921  0.88329  0.13590  Biso   1.000  H
  H409     1.0000 0.02842  0.86710  0.18352  Biso   1.000  H
  H410     1.0000 0.01607  0.91868  0.14650  Biso   1.000  H
  C442     1.0000 0.31507  0.19649  0.49627  Biso   1.000  C
  C443     1.0000 0.33679  0.12720  0.52969  Biso   1.000  C
  H411     1.0000 0.36555  0.11901  0.64898  Biso   1.000  H
  C444     1.0000 0.35800  0.29600  0.02812  Biso   1.000  C
  H412     1.0000 0.24499  0.30501  0.97777  Biso   1.000  H
  H413     1.0000 0.47491  0.28599  0.06208  Biso   1.000  H
  H414     1.0000 0.62548  0.93629  0.62675  Biso   1.000  H
  H415     1.0000 0.70705  0.90810  0.66677  Biso   1.000  H
  H416     1.0000 0.61747  0.88839  0.67309  Biso   1.000  H
  H417     1.0000 0.60511  0.89601  0.63329  Biso   1.000  H
  H418     1.0000 0.54538  0.93749  0.59397  Biso   1.000  H
  H419     1.0000 0.64281  0.94671  0.62220  Biso   1.000  H
  C445     1.0000 0.92378  0.17639  0.76490  Biso   1.000  C
  H420     1.0000 0.15210  0.17230  0.65559  Biso   1.000  H
  H421     1.0000 0.21898  0.31540  0.08940  Biso   1.000  H
  C446     1.0000 0.10121  0.31600  0.04751  Biso   1.000  C
  H422     1.0000 0.98352  0.30970  0.01778  Biso   1.000  H
  O47      1.0000 0.94996  0.23040  0.95966  Biso   1.000  O
  C447     1.0000 0.00320  0.21800  0.85976  Biso   1.000  C
  H423     1.0000 0.93429  0.96391  0.89490  Biso   1.000  H
  H424     1.0000 0.83796  0.96029  0.89415  Biso   1.000  H
  C448     1.0000 0.86719  0.94930  0.79158  Biso   1.000  C
  H425     1.0000 0.30030  0.21822  0.45218  Biso   1.000  H
  C449     1.0000 0.31808  0.15740  0.48346  Biso   1.000  C
  H426     1.0000 0.34110  0.09470  0.51416  Biso   1.000  H
  H427     1.0000 0.35182  0.31200  0.07671  Biso   1.000  H
  O48      1.0000 0.90795  0.16339  0.70046  Biso   1.000  O
  C450     1.0000 0.98978  0.19941  0.78949  Biso   1.000  C
  H428     1.0000 0.10628  0.33310  0.99968  Biso   1.000  H
  C451     1.0000 0.06707  0.24029  0.88596  Biso   1.000  C
  H429     1.0000 0.90978  0.95959  0.76249  Biso   1.000  H
  H430     1.0000 0.81289  0.95789  0.76008  Biso   1.000  H
  C452     1.0000 0.87120  0.90199  0.80020  Biso   1.000  C
  H431     1.0000 0.30348  0.14811  0.42797  Biso   1.000  H
  C453     1.0000 0.04370  0.20830  0.74626  Biso   1.000  C
  H432     1.0000 0.07667  0.25320  0.93947  Biso   1.000  H
  C454     1.0000 0.12015  0.24631  0.84187  Biso   1.000  C
  H433     1.0000 0.92537  0.89349  0.83218  Biso   1.000  H
  H434     1.0000 0.82860  0.89192  0.82929  Biso   1.000  H
  C455     1.0000 0.85999  0.87859  0.72869  Biso   1.000  C
  C456     1.0000 0.10916  0.23081  0.77277  Biso   1.000  C
  H435     1.0000 0.03345  0.19730  0.69146  Biso   1.000  H
  H436     1.0000 0.17066  0.26350  0.86287  Biso   1.000  H
  H437     1.0000 0.88828  0.89560  0.69200  Biso   1.000  H
  H438     1.0000 0.88318  0.84701  0.73726  Biso   1.000  H
  H439     1.0000 0.80056  0.87661  0.70576  Biso   1.000  H
  H440     1.0000 0.15018  0.23591  0.73999  Biso   1.000  H
