data_image0
_cell_length_a       13.988
_cell_length_b       13.988
_cell_length_c       31.44
_cell_angle_alpha    90
_cell_angle_beta     90
_cell_angle_gamma    90

_symmetry_space_group_name_H-M    "P 1"
_symmetry_int_tables_number       1

loop_
  _symmetry_equiv_pos_as_xyz
  'x, y, z'

loop_
  _atom_site_label
  _atom_site_occupancy
  _atom_site_fract_x
  _atom_site_fract_y
  _atom_site_fract_z
  _atom_site_thermal_displace_type
  _atom_site_B_iso_or_equiv
  _atom_site_type_symbol
  C1       1.0000 0.68130  0.48020  0.49978  Biso   1.000  C
  C2       1.0000 0.63397  0.45017  0.54141  Biso   1.000  C
  H1       1.0000 0.65270  0.53839  0.48979  Biso   1.000  H
  H2       1.0000 0.67251  0.43080  0.47891  Biso   1.000  H
  H3       1.0000 0.74836  0.49006  0.50439  Biso   1.000  H
  C3       1.0000 0.57821  0.50951  0.56247  Biso   1.000  C
  C4       1.0000 0.65985  0.35330  0.55474  Biso   1.000  C
  C5       1.0000 0.52481  0.47920  0.60080  Biso   1.000  C
  C6       1.0000 0.56255  0.61467  0.55064  Biso   1.000  C
  N1       1.0000 0.64498  0.31741  0.59542  Biso   1.000  N
  C7       1.0000 0.71097  0.28546  0.53400  Biso   1.000  C
  N2       1.0000 0.45089  0.41521  0.59752  Biso   1.000  N
  C8       1.0000 0.53331  0.49671  0.64288  Biso   1.000  C
  H4       1.0000 0.56877  0.65356  0.57560  Biso   1.000  H
  H5       1.0000 0.49971  0.62246  0.53890  Biso   1.000  H
  H6       1.0000 0.60938  0.63369  0.52999  Biso   1.000  H
  C9       1.0000 0.68566  0.22912  0.59987  Biso   1.000  C
  H7       1.0000 0.60695  0.35001  0.61390  Biso   1.000  H
  C10      1.0000 0.72705  0.20818  0.56164  Biso   1.000  C
  H8       1.0000 0.73198  0.28939  0.50601  Biso   1.000  H
  C11      1.0000 0.41385  0.39048  0.63616  Biso   1.000  C
  H9       1.0000 0.43401  0.39098  0.57319  Biso   1.000  H
  C12      1.0000 0.46568  0.44095  0.66498  Biso   1.000  C
  H10      1.0000 0.57671  0.53868  0.65518  Biso   1.000  H
  C13      1.0000 0.67379  0.17136  0.63982  Biso   1.000  C
  H11      1.0000 0.76029  0.15256  0.55509  Biso   1.000  H
  C14      1.0000 0.32621  0.32857  0.63982  Biso   1.000  C
  H12      1.0000 0.45775  0.43909  0.69431  Biso   1.000  H
  C15      1.0000 0.58607  0.10952  0.63616  Biso   1.000  C
  C16      1.0000 0.76115  0.10516  0.64574  Biso   1.000  C
  C17      1.0000 0.66600  0.23442  0.67974  Biso   1.000  C
  C18      1.0000 0.31427  0.27088  0.59987  Biso   1.000  C
  C19      1.0000 0.23878  0.39477  0.64574  Biso   1.000  C
  C20      1.0000 0.33400  0.26558  0.67974  Biso   1.000  C
  N3       1.0000 0.54911  0.08479  0.59752  Biso   1.000  N
  C21      1.0000 0.53432  0.05898  0.66498  Biso   1.000  C
  H13      1.0000 0.74857  0.06162  0.66912  Biso   1.000  H
  H14      1.0000 0.76959  0.06720  0.62020  Biso   1.000  H
  C22      1.0000 0.85330  0.15892  0.65477  Biso   1.000  C
  C23      1.0000 0.75729  0.28946  0.68833  Biso   1.000  C
  H15      1.0000 0.61367  0.27910  0.67611  Biso   1.000  H
  H16      1.0000 0.65156  0.19438  0.70410  Biso   1.000  H
  N4       1.0000 0.35502  0.18259  0.59542  Biso   1.000  N
  C24      1.0000 0.27288  0.29182  0.56164  Biso   1.000  C
  H17      1.0000 0.25136  0.43838  0.66912  Biso   1.000  H
  H18      1.0000 0.23041  0.43280  0.62020  Biso   1.000  H
  C25      1.0000 0.14670  0.34108  0.65477  Biso   1.000  C
  C26      1.0000 0.24271  0.21047  0.68833  Biso   1.000  C
  H19      1.0000 0.38626  0.22090  0.67611  Biso   1.000  H
  H20      1.0000 0.34837  0.30562  0.70410  Biso   1.000  H
  C27      1.0000 0.47519  0.02080  0.60080  Biso   1.000  C
  H21      1.0000 0.56599  0.10902  0.57319  Biso   1.000  H
  C28      1.0000 0.46669  0.00329  0.64288  Biso   1.000  C
  H22      1.0000 0.54218  0.06091  0.69431  Biso   1.000  H
  H23      1.0000 0.90435  0.11338  0.65989  Biso   1.000  H
  H24      1.0000 0.87039  0.19688  0.63009  Biso   1.000  H
  C29      1.0000 0.84287  0.22362  0.69307  Biso   1.000  C
  H25      1.0000 0.74964  0.32671  0.71409  Biso   1.000  H
  H26      1.0000 0.76887  0.33357  0.66511  Biso   1.000  H
  C30      1.0000 0.34008  0.14670  0.55474  Biso   1.000  C
  H27      1.0000 0.39298  0.14999  0.61390  Biso   1.000  H
  C31      1.0000 0.28896  0.21447  0.53400  Biso   1.000  C
  H28      1.0000 0.23971  0.34737  0.55509  Biso   1.000  H
  H29      1.0000 0.09558  0.38662  0.65989  Biso   1.000  H
  H30      1.0000 0.12961  0.30312  0.63009  Biso   1.000  H
  C32      1.0000 0.15706  0.27638  0.69307  Biso   1.000  C
  H31      1.0000 0.25029  0.17329  0.71409  Biso   1.000  H
  H32      1.0000 0.23113  0.16643  0.66511  Biso   1.000  H
  C33      1.0000 0.42179  0.99049  0.56247  Biso   1.000  C
  H33      1.0000 0.42329  0.96125  0.65518  Biso   1.000  H
  H34      1.0000 0.90034  0.26158  0.69641  Biso   1.000  H
  H35      1.0000 0.83514  0.18502  0.71851  Biso   1.000  H
  C34      1.0000 0.36596  0.04983  0.54141  Biso   1.000  C
  H36      1.0000 0.26802  0.21061  0.50601  Biso   1.000  H
  H37      1.0000 0.09959  0.23842  0.69641  Biso   1.000  H
  H38      1.0000 0.16478  0.31498  0.71851  Biso   1.000  H
  C35      1.0000 0.43737  0.88526  0.55064  Biso   1.000  C
  C36      1.0000 0.31870  0.01980  0.49978  Biso   1.000  C
  H39      1.0000 0.43116  0.84637  0.57560  Biso   1.000  H
  H40      1.0000 0.50029  0.87747  0.53890  Biso   1.000  H
  H41      1.0000 0.39062  0.86624  0.52999  Biso   1.000  H
  H42      1.0000 0.32749  0.06920  0.47891  Biso   1.000  H
  H43      1.0000 0.25157  0.00987  0.50439  Biso   1.000  H
  H44      1.0000 0.34730  0.96154  0.48979  Biso   1.000  H
  C37      1.0000 0.72705  0.70818  0.43836  Biso   1.000  C
  C38      1.0000 0.68566  0.72905  0.40013  Biso   1.000  C
  H45      1.0000 0.76029  0.65256  0.44491  Biso   1.000  H
  C39      1.0000 0.71097  0.78546  0.46600  Biso   1.000  C
  C40      1.0000 0.67379  0.67136  0.36018  Biso   1.000  C
  N5       1.0000 0.64498  0.81734  0.40458  Biso   1.000  N
  C41      1.0000 0.65985  0.85330  0.44526  Biso   1.000  C
  H46      1.0000 0.73198  0.78939  0.49399  Biso   1.000  H
  C42      1.0000 0.58607  0.60945  0.36384  Biso   1.000  C
  C43      1.0000 0.76115  0.60516  0.35426  Biso   1.000  C
  C44      1.0000 0.66600  0.73434  0.32026  Biso   1.000  C
  H47      1.0000 0.60695  0.84994  0.38610  Biso   1.000  H
  C45      1.0000 0.63397  0.95017  0.45859  Biso   1.000  C
  C46      1.0000 0.53432  0.55898  0.33502  Biso   1.000  C
  N6       1.0000 0.54911  0.58479  0.40248  Biso   1.000  N
  H48      1.0000 0.74857  0.56155  0.33088  Biso   1.000  H
  H49      1.0000 0.76959  0.56720  0.37980  Biso   1.000  H
  C47      1.0000 0.85330  0.65885  0.34523  Biso   1.000  C
  C48      1.0000 0.75729  0.78946  0.31167  Biso   1.000  C
  H50      1.0000 0.61367  0.77910  0.32389  Biso   1.000  H
  H51      1.0000 0.65156  0.69438  0.29590  Biso   1.000  H
  C49      1.0000 0.68130  0.98020  0.50022  Biso   1.000  C
  C50      1.0000 0.57821  0.00951  0.43753  Biso   1.000  C
  C51      1.0000 0.46669  0.50329  0.35712  Biso   1.000  C
  H52      1.0000 0.54218  0.56091  0.30569  Biso   1.000  H
  C52      1.0000 0.47519  0.52080  0.39920  Biso   1.000  C
  H53      1.0000 0.56599  0.60895  0.42681  Biso   1.000  H
  H54      1.0000 0.90435  0.61338  0.34011  Biso   1.000  H
  H55      1.0000 0.87039  0.69688  0.36991  Biso   1.000  H
  C53      1.0000 0.84287  0.72355  0.30693  Biso   1.000  C
  H56      1.0000 0.74964  0.82664  0.28591  Biso   1.000  H
  H57      1.0000 0.76887  0.83357  0.33489  Biso   1.000  H
  H58      1.0000 0.67251  0.93080  0.52109  Biso   1.000  H
  H59      1.0000 0.74836  0.99006  0.49561  Biso   1.000  H
  H60      1.0000 0.65270  0.03839  0.51021  Biso   1.000  H
  C54      1.0000 0.52481  0.97920  0.39920  Biso   1.000  C
  C55      1.0000 0.56255  0.11467  0.44936  Biso   1.000  C
  H61      1.0000 0.42329  0.46125  0.34482  Biso   1.000  H
  C56      1.0000 0.42179  0.49049  0.43753  Biso   1.000  C
  H62      1.0000 0.90034  0.76158  0.30359  Biso   1.000  H
  H63      1.0000 0.83514  0.68494  0.28149  Biso   1.000  H
  N7       1.0000 0.45089  0.91514  0.40248  Biso   1.000  N
  C57      1.0000 0.53331  0.99664  0.35712  Biso   1.000  C
  H64      1.0000 0.56877  0.15356  0.42440  Biso   1.000  H
  H65      1.0000 0.49971  0.12246  0.46110  Biso   1.000  H
  H66      1.0000 0.60938  0.13369  0.47001  Biso   1.000  H
  C58      1.0000 0.36596  0.54976  0.45859  Biso   1.000  C
  C59      1.0000 0.43737  0.38526  0.44936  Biso   1.000  C
  C60      1.0000 0.41385  0.89048  0.36384  Biso   1.000  C
  H67      1.0000 0.43401  0.89098  0.42681  Biso   1.000  H
  C61      1.0000 0.46568  0.94095  0.33502  Biso   1.000  C
  H68      1.0000 0.57671  0.03868  0.34482  Biso   1.000  H
  C62      1.0000 0.34008  0.64670  0.44526  Biso   1.000  C
  C63      1.0000 0.31870  0.51980  0.50022  Biso   1.000  C
  H69      1.0000 0.43116  0.34637  0.42440  Biso   1.000  H
  H70      1.0000 0.50029  0.37747  0.46110  Biso   1.000  H
  H71      1.0000 0.39062  0.36631  0.47001  Biso   1.000  H
  C64      1.0000 0.32621  0.82857  0.36018  Biso   1.000  C
  H72      1.0000 0.45775  0.93909  0.30569  Biso   1.000  H
  C65      1.0000 0.28896  0.71447  0.46600  Biso   1.000  C
  N8       1.0000 0.35502  0.68259  0.40458  Biso   1.000  N
  H73      1.0000 0.34730  0.46161  0.51021  Biso   1.000  H
  H74      1.0000 0.32749  0.56920  0.52109  Biso   1.000  H
  H75      1.0000 0.25157  0.50987  0.49561  Biso   1.000  H
  C66      1.0000 0.31427  0.77088  0.40013  Biso   1.000  C
  C67      1.0000 0.23878  0.89477  0.35426  Biso   1.000  C
  C68      1.0000 0.33400  0.76558  0.32026  Biso   1.000  C
  C69      1.0000 0.27288  0.79175  0.43836  Biso   1.000  C
  H76      1.0000 0.26802  0.71061  0.49399  Biso   1.000  H
  H77      1.0000 0.39298  0.64999  0.38610  Biso   1.000  H
  H78      1.0000 0.25136  0.93838  0.33088  Biso   1.000  H
  H79      1.0000 0.23041  0.93280  0.37980  Biso   1.000  H
  C70      1.0000 0.14670  0.84108  0.34523  Biso   1.000  C
  C71      1.0000 0.24271  0.71047  0.31167  Biso   1.000  C
  H80      1.0000 0.38626  0.72090  0.32389  Biso   1.000  H
  H81      1.0000 0.34837  0.80555  0.29590  Biso   1.000  H
  H82      1.0000 0.23971  0.84737  0.44491  Biso   1.000  H
  H83      1.0000 0.09558  0.88655  0.34011  Biso   1.000  H
  H84      1.0000 0.12961  0.80305  0.36991  Biso   1.000  H
  C72      1.0000 0.15706  0.77638  0.30693  Biso   1.000  C
  H85      1.0000 0.25029  0.67329  0.28591  Biso   1.000  H
  H86      1.0000 0.23113  0.66636  0.33489  Biso   1.000  H
  H87      1.0000 0.09959  0.73835  0.30359  Biso   1.000  H
  H88      1.0000 0.16478  0.81498  0.28149  Biso   1.000  H
  C73      1.0000 0.96047  0.50729  0.43833  Biso   1.000  C
  C74      1.0000 0.01558  0.41600  0.42974  Biso   1.000  C
  C75      1.0000 0.02638  0.59287  0.44307  Biso   1.000  C
  H89      1.0000 0.92329  0.49971  0.46409  Biso   1.000  H
  H90      1.0000 0.91636  0.51887  0.41511  Biso   1.000  H
  C76      1.0000 0.07857  0.42379  0.38982  Biso   1.000  C
  H91      1.0000 0.97083  0.36367  0.42611  Biso   1.000  H
  H92      1.0000 0.05562  0.40156  0.45410  Biso   1.000  H
  C77      1.0000 0.09108  0.60330  0.40477  Biso   1.000  C
  H93      1.0000 0.98835  0.65034  0.44641  Biso   1.000  H
  H94      1.0000 0.06498  0.58514  0.46851  Biso   1.000  H
  C78      1.0000 0.02088  0.43566  0.34987  Biso   1.000  C
  C79      1.0000 0.14048  0.33607  0.38616  Biso   1.000  C
  C80      1.0000 0.14477  0.51115  0.39574  Biso   1.000  C
  H95      1.0000 0.13662  0.65435  0.40989  Biso   1.000  H
  H96      1.0000 0.05312  0.62039  0.38009  Biso   1.000  H
  N9       1.0000 0.93259  0.39498  0.34542  Biso   1.000  N
  C81      1.0000 0.04182  0.47705  0.31164  Biso   1.000  C
  C82      1.0000 0.19102  0.28432  0.41498  Biso   1.000  C
  N10      1.0000 0.16521  0.29911  0.34752  Biso   1.000  N
  H97      1.0000 0.18838  0.49857  0.41912  Biso   1.000  H
  H98      1.0000 0.18280  0.51959  0.37020  Biso   1.000  H
  C83      1.0000 0.89670  0.40985  0.30474  Biso   1.000  C
  H99      1.0000 0.89999  0.35702  0.36390  Biso   1.000  H
  C84      1.0000 0.96447  0.46097  0.28400  Biso   1.000  C
  H100     1.0000 0.09737  0.51029  0.30509  Biso   1.000  H
  C85      1.0000 0.24671  0.21669  0.39288  Biso   1.000  C
  H101     1.0000 0.18909  0.29218  0.44431  Biso   1.000  H
  C86      1.0000 0.22920  0.22519  0.35080  Biso   1.000  C
  H102     1.0000 0.14098  0.31599  0.32319  Biso   1.000  H
  C87      1.0000 0.79976  0.38397  0.29141  Biso   1.000  C
  H103     1.0000 0.96054  0.48198  0.25601  Biso   1.000  H
  H104     1.0000 0.28868  0.17329  0.40518  Biso   1.000  H
  C88      1.0000 0.25951  0.17179  0.31247  Biso   1.000  C
  C89      1.0000 0.74049  0.32821  0.31247  Biso   1.000  C
  C90      1.0000 0.76980  0.43130  0.24978  Biso   1.000  C
  C91      1.0000 0.20017  0.11603  0.29141  Biso   1.000  C
  C92      1.0000 0.36467  0.18737  0.30064  Biso   1.000  C
  C93      1.0000 0.63526  0.31255  0.30064  Biso   1.000  C
  C94      1.0000 0.77080  0.27481  0.35080  Biso   1.000  C
  H105     1.0000 0.71161  0.40270  0.23979  Biso   1.000  H
  H106     1.0000 0.81920  0.42251  0.22891  Biso   1.000  H
  H107     1.0000 0.75987  0.49836  0.25439  Biso   1.000  H
  C95      1.0000 0.10330  0.09008  0.30474  Biso   1.000  C
  C96      1.0000 0.23020  0.06870  0.24978  Biso   1.000  C
  H108     1.0000 0.40356  0.18123  0.32560  Biso   1.000  H
  H109     1.0000 0.37246  0.25029  0.28890  Biso   1.000  H
  H110     1.0000 0.38369  0.14062  0.27999  Biso   1.000  H
  H111     1.0000 0.59637  0.31877  0.32560  Biso   1.000  H
  H112     1.0000 0.62747  0.24971  0.28890  Biso   1.000  H
  H113     1.0000 0.61624  0.35938  0.27999  Biso   1.000  H
  C97      1.0000 0.75329  0.28331  0.39288  Biso   1.000  C
  N11      1.0000 0.83479  0.20089  0.34752  Biso   1.000  N
  N12      1.0000 0.06741  0.10502  0.34542  Biso   1.000  N
  C98      1.0000 0.03553  0.03903  0.28400  Biso   1.000  C
  H114     1.0000 0.28839  0.09730  0.23979  Biso   1.000  H
  H115     1.0000 0.18080  0.07749  0.22891  Biso   1.000  H
  H116     1.0000 0.24006  0.00157  0.25439  Biso   1.000  H
  H117     1.0000 0.71125  0.32671  0.40518  Biso   1.000  H
  C99      1.0000 0.80898  0.21568  0.41498  Biso   1.000  C
  C100     1.0000 0.85945  0.16393  0.38616  Biso   1.000  C
  H118     1.0000 0.85895  0.18401  0.32319  Biso   1.000  H
  C101     1.0000 0.97905  0.06427  0.34987  Biso   1.000  C
  H119     1.0000 0.10001  0.14298  0.36390  Biso   1.000  H
  C102     1.0000 0.95818  0.02288  0.31164  Biso   1.000  C
  H120     1.0000 0.03939  0.01802  0.25601  Biso   1.000  H
  H121     1.0000 0.81084  0.20782  0.44431  Biso   1.000  H
  C103     1.0000 0.92136  0.07621  0.38982  Biso   1.000  C
  H122     1.0000 0.90256  0.98963  0.30509  Biso   1.000  H
  C104     1.0000 0.98434  0.08400  0.42974  Biso   1.000  C
  C105     1.0000 0.85516  0.98878  0.39574  Biso   1.000  C
  H123     1.0000 0.94438  0.09837  0.45410  Biso   1.000  H
  C106     1.0000 0.03953  0.99264  0.43833  Biso   1.000  C
  H124     1.0000 0.02910  0.13626  0.42611  Biso   1.000  H
  H125     1.0000 0.81155  0.00143  0.41912  Biso   1.000  H
  H126     1.0000 0.81720  0.98034  0.37020  Biso   1.000  H
  C107     1.0000 0.90885  0.89670  0.40477  Biso   1.000  C
  C108     1.0000 0.97355  0.90706  0.44307  Biso   1.000  C
  H127     1.0000 0.08357  0.98106  0.41511  Biso   1.000  H
  H128     1.0000 0.07671  0.00029  0.46409  Biso   1.000  H
  H129     1.0000 0.86338  0.84558  0.40989  Biso   1.000  H
  H130     1.0000 0.94688  0.87954  0.38009  Biso   1.000  H
  H131     1.0000 0.93494  0.91478  0.46851  Biso   1.000  H
  H132     1.0000 0.01158  0.84959  0.44641  Biso   1.000  H
  C109     1.0000 0.85516  0.48878  0.60426  Biso   1.000  C
  C110     1.0000 0.90885  0.39670  0.59523  Biso   1.000  C
  C111     1.0000 0.92136  0.57621  0.61018  Biso   1.000  C
  H133     1.0000 0.81155  0.50136  0.58088  Biso   1.000  H
  H134     1.0000 0.81720  0.48041  0.62980  Biso   1.000  H
  C112     1.0000 0.97355  0.40706  0.55693  Biso   1.000  C
  H135     1.0000 0.86338  0.34558  0.59011  Biso   1.000  H
  H136     1.0000 0.94688  0.37961  0.61991  Biso   1.000  H
  C113     1.0000 0.98434  0.58400  0.57026  Biso   1.000  C
  C114     1.0000 0.85945  0.66385  0.61384  Biso   1.000  C
  C115     1.0000 0.97905  0.56427  0.65013  Biso   1.000  C
  H137     1.0000 0.93494  0.41478  0.53149  Biso   1.000  H
  H138     1.0000 0.01158  0.34959  0.55359  Biso   1.000  H
  C116     1.0000 0.03953  0.49271  0.56167  Biso   1.000  C
  H139     1.0000 0.94438  0.59837  0.54590  Biso   1.000  H
  H140     1.0000 0.02910  0.63626  0.57389  Biso   1.000  H
  C117     1.0000 0.80898  0.71568  0.58502  Biso   1.000  C
  N13      1.0000 0.83479  0.70089  0.65248  Biso   1.000  N
  C118     1.0000 0.95818  0.52288  0.68836  Biso   1.000  C
  N14      1.0000 0.06741  0.60495  0.65458  Biso   1.000  N
  H141     1.0000 0.07671  0.50029  0.53591  Biso   1.000  H
  H142     1.0000 0.08357  0.48106  0.58489  Biso   1.000  H
  C119     1.0000 0.75329  0.78324  0.60712  Biso   1.000  C
  H143     1.0000 0.81084  0.70775  0.55569  Biso   1.000  H
  C120     1.0000 0.77080  0.77481  0.64920  Biso   1.000  C
  H144     1.0000 0.85895  0.68394  0.67681  Biso   1.000  H
  H145     1.0000 0.90256  0.48971  0.69491  Biso   1.000  H
  C121     1.0000 0.03553  0.53896  0.71600  Biso   1.000  C
  C122     1.0000 0.10330  0.59008  0.69526  Biso   1.000  C
  H146     1.0000 0.10001  0.64298  0.63610  Biso   1.000  H
  H147     1.0000 0.71125  0.82664  0.59482  Biso   1.000  H
  C123     1.0000 0.74049  0.82814  0.68753  Biso   1.000  C
  H148     1.0000 0.03939  0.51802  0.74399  Biso   1.000  H
  C124     1.0000 0.20017  0.61596  0.70859  Biso   1.000  C
  C125     1.0000 0.79976  0.88397  0.70859  Biso   1.000  C
  C126     1.0000 0.63526  0.81255  0.69936  Biso   1.000  C
  C127     1.0000 0.25951  0.67179  0.68753  Biso   1.000  C
  C128     1.0000 0.23020  0.56870  0.75022  Biso   1.000  C
  C129     1.0000 0.89670  0.90985  0.69526  Biso   1.000  C
  C130     1.0000 0.76980  0.93130  0.75022  Biso   1.000  C
  H149     1.0000 0.59637  0.81877  0.67440  Biso   1.000  H
  H150     1.0000 0.62747  0.74964  0.71110  Biso   1.000  H
  H151     1.0000 0.61624  0.85938  0.72001  Biso   1.000  H
  C131     1.0000 0.22920  0.72519  0.64920  Biso   1.000  C
  C132     1.0000 0.36467  0.68737  0.69936  Biso   1.000  C
  H152     1.0000 0.28839  0.59730  0.76021  Biso   1.000  H
  H153     1.0000 0.18080  0.57749  0.77109  Biso   1.000  H
  H154     1.0000 0.24006  0.50157  0.74561  Biso   1.000  H
  C133     1.0000 0.96447  0.96097  0.71600  Biso   1.000  C
  N15      1.0000 0.93259  0.89498  0.65458  Biso   1.000  N
  H155     1.0000 0.71161  0.90270  0.76021  Biso   1.000  H
  H156     1.0000 0.81920  0.92243  0.77109  Biso   1.000  H
  H157     1.0000 0.75987  0.99836  0.74561  Biso   1.000  H
  C134     1.0000 0.24671  0.71669  0.60712  Biso   1.000  C
  N16      1.0000 0.16521  0.79904  0.65248  Biso   1.000  N
  H158     1.0000 0.40356  0.68116  0.67440  Biso   1.000  H
  H159     1.0000 0.37246  0.75029  0.71110  Biso   1.000  H
  H160     1.0000 0.38369  0.64055  0.72001  Biso   1.000  H
  H161     1.0000 0.96054  0.98198  0.74399  Biso   1.000  H
  C135     1.0000 0.04182  0.97705  0.68836  Biso   1.000  C
  H162     1.0000 0.89999  0.85695  0.63610  Biso   1.000  H
  C136     1.0000 0.02088  0.93566  0.65013  Biso   1.000  C
  H163     1.0000 0.28868  0.67329  0.59482  Biso   1.000  H
  C137     1.0000 0.19102  0.78424  0.58502  Biso   1.000  C
  C138     1.0000 0.14048  0.83607  0.61384  Biso   1.000  C
  H164     1.0000 0.14098  0.81599  0.67681  Biso   1.000  H
  H165     1.0000 0.09737  0.01029  0.69491  Biso   1.000  H
  C139     1.0000 0.07857  0.92379  0.61018  Biso   1.000  C
  H166     1.0000 0.18909  0.79218  0.55569  Biso   1.000  H
  C140     1.0000 0.01558  0.91600  0.57026  Biso   1.000  C
  C141     1.0000 0.14477  0.01122  0.60426  Biso   1.000  C
  H167     1.0000 0.97083  0.86367  0.57389  Biso   1.000  H
  C142     1.0000 0.96047  0.00729  0.56167  Biso   1.000  C
  H168     1.0000 0.05562  0.90156  0.54590  Biso   1.000  H
  H169     1.0000 0.18838  0.99857  0.58088  Biso   1.000  H
  H170     1.0000 0.18280  0.01959  0.62980  Biso   1.000  H
  C143     1.0000 0.09108  0.10330  0.59523  Biso   1.000  C
  H171     1.0000 0.92329  0.99964  0.53591  Biso   1.000  H
  H172     1.0000 0.91636  0.01887  0.58489  Biso   1.000  H
  C144     1.0000 0.02638  0.09287  0.55693  Biso   1.000  C
  H173     1.0000 0.13662  0.15442  0.59011  Biso   1.000  H
  H174     1.0000 0.05312  0.12039  0.61991  Biso   1.000  H
  H175     1.0000 0.98835  0.15041  0.55359  Biso   1.000  H
  H176     1.0000 0.06498  0.08522  0.53149  Biso   1.000  H
  C145     1.0000 0.73020  0.56870  0.74978  Biso   1.000  C
  C146     1.0000 0.70017  0.61596  0.79141  Biso   1.000  C
  H177     1.0000 0.78839  0.59730  0.73979  Biso   1.000  H
  H178     1.0000 0.68080  0.57749  0.72891  Biso   1.000  H
  H179     1.0000 0.74006  0.50157  0.75439  Biso   1.000  H
  C147     1.0000 0.60330  0.59008  0.80474  Biso   1.000  C
  C148     1.0000 0.75951  0.67179  0.81247  Biso   1.000  C
  C149     1.0000 0.53546  0.53896  0.78400  Biso   1.000  C
  N17      1.0000 0.56741  0.60495  0.84542  Biso   1.000  N
  C150     1.0000 0.72920  0.72519  0.85080  Biso   1.000  C
  C151     1.0000 0.86467  0.68737  0.80064  Biso   1.000  C
  C152     1.0000 0.45818  0.52288  0.81164  Biso   1.000  C
  H180     1.0000 0.53939  0.51802  0.75601  Biso   1.000  H
  C153     1.0000 0.47905  0.56427  0.84987  Biso   1.000  C
  H181     1.0000 0.60001  0.64298  0.86390  Biso   1.000  H
  C154     1.0000 0.74664  0.71669  0.89288  Biso   1.000  C
  N18      1.0000 0.66514  0.79904  0.84752  Biso   1.000  N
  H182     1.0000 0.90356  0.68116  0.82560  Biso   1.000  H
  H183     1.0000 0.87246  0.75029  0.78890  Biso   1.000  H
  H184     1.0000 0.88369  0.64055  0.77999  Biso   1.000  H
  H185     1.0000 0.40256  0.48971  0.80509  Biso   1.000  H
  C155     1.0000 0.42136  0.57621  0.88982  Biso   1.000  C
  H186     1.0000 0.78868  0.67329  0.90518  Biso   1.000  H
  C156     1.0000 0.69095  0.78424  0.91498  Biso   1.000  C
  C157     1.0000 0.64048  0.83607  0.88616  Biso   1.000  C
  H187     1.0000 0.64098  0.81599  0.82319  Biso   1.000  H
  C158     1.0000 0.35952  0.66385  0.88616  Biso   1.000  C
  C159     1.0000 0.35516  0.48878  0.89574  Biso   1.000  C
  C160     1.0000 0.48442  0.58400  0.92974  Biso   1.000  C
  H188     1.0000 0.68909  0.79218  0.94431  Biso   1.000  H
  C161     1.0000 0.57857  0.92379  0.88982  Biso   1.000  C
  C162     1.0000 0.30898  0.71568  0.91498  Biso   1.000  C
  N19      1.0000 0.33479  0.70089  0.84752  Biso   1.000  N
  H189     1.0000 0.31162  0.50136  0.91912  Biso   1.000  H
  H190     1.0000 0.31720  0.48041  0.87020  Biso   1.000  H
  C163     1.0000 0.40885  0.39670  0.90477  Biso   1.000  C
  C164     1.0000 0.53946  0.49271  0.93833  Biso   1.000  C
  H191     1.0000 0.52910  0.63626  0.92611  Biso   1.000  H
  H192     1.0000 0.44438  0.59837  0.95410  Biso   1.000  H
  C165     1.0000 0.52088  0.93566  0.84987  Biso   1.000  C
  C166     1.0000 0.51558  0.91600  0.92974  Biso   1.000  C
  C167     1.0000 0.64477  0.01122  0.89574  Biso   1.000  C
  C168     1.0000 0.25329  0.78324  0.89288  Biso   1.000  C
  H193     1.0000 0.31091  0.70775  0.94431  Biso   1.000  H
  C169     1.0000 0.27080  0.77481  0.85080  Biso   1.000  C
  H194     1.0000 0.35902  0.68394  0.82319  Biso   1.000  H
  H195     1.0000 0.36338  0.34558  0.90989  Biso   1.000  H
  H196     1.0000 0.44688  0.37961  0.88009  Biso   1.000  H
  C170     1.0000 0.47355  0.40706  0.94307  Biso   1.000  C
  H197     1.0000 0.57671  0.50029  0.96409  Biso   1.000  H
  H198     1.0000 0.58357  0.48106  0.91511  Biso   1.000  H
  C171     1.0000 0.54175  0.97705  0.81164  Biso   1.000  C
  N20      1.0000 0.43259  0.89498  0.84542  Biso   1.000  N
  H199     1.0000 0.47090  0.86367  0.92611  Biso   1.000  H
  H200     1.0000 0.55555  0.90156  0.95410  Biso   1.000  H
  C172     1.0000 0.46047  0.00729  0.93833  Biso   1.000  C
  H201     1.0000 0.68838  0.99857  0.91912  Biso   1.000  H
  H202     1.0000 0.68280  0.01959  0.87020  Biso   1.000  H
  C173     1.0000 0.59108  0.10330  0.90477  Biso   1.000  C
  H203     1.0000 0.21132  0.82664  0.90518  Biso   1.000  H
  C174     1.0000 0.24049  0.82814  0.81247  Biso   1.000  C
  H204     1.0000 0.51158  0.34959  0.94641  Biso   1.000  H
  H205     1.0000 0.43502  0.41478  0.96851  Biso   1.000  H
  C175     1.0000 0.46447  0.96097  0.78400  Biso   1.000  C
  H206     1.0000 0.59737  0.01029  0.80509  Biso   1.000  H
  C176     1.0000 0.39670  0.90985  0.80474  Biso   1.000  C
  H207     1.0000 0.39999  0.85695  0.86390  Biso   1.000  H
  H208     1.0000 0.42329  0.99964  0.96409  Biso   1.000  H
  C177     1.0000 0.52638  0.09287  0.94307  Biso   1.000  C
  H209     1.0000 0.41636  0.01887  0.91511  Biso   1.000  H
  H210     1.0000 0.63655  0.15442  0.90989  Biso   1.000  H
  H211     1.0000 0.55305  0.12039  0.88009  Biso   1.000  H
  C178     1.0000 0.29976  0.88397  0.79141  Biso   1.000  C
  C179     1.0000 0.13533  0.81255  0.80064  Biso   1.000  C
  H212     1.0000 0.46061  0.98198  0.75601  Biso   1.000  H
  H213     1.0000 0.48835  0.15041  0.94641  Biso   1.000  H
  H214     1.0000 0.56498  0.08522  0.96851  Biso   1.000  H
  C180     1.0000 0.26980  0.93130  0.74978  Biso   1.000  C
  H215     1.0000 0.09637  0.81877  0.82560  Biso   1.000  H
  H216     1.0000 0.12747  0.74964  0.78890  Biso   1.000  H
  H217     1.0000 0.11631  0.85938  0.77999  Biso   1.000  H
  H218     1.0000 0.21161  0.90270  0.73979  Biso   1.000  H
  H219     1.0000 0.31920  0.92243  0.72891  Biso   1.000  H
  H220     1.0000 0.25987  0.99836  0.75439  Biso   1.000  H
  C181     1.0000 0.46447  0.46097  0.21600  Biso   1.000  C
  C182     1.0000 0.39670  0.40985  0.19526  Biso   1.000  C
  C183     1.0000 0.54175  0.47705  0.18836  Biso   1.000  C
  H221     1.0000 0.46061  0.48198  0.24399  Biso   1.000  H
  C184     1.0000 0.29976  0.38397  0.20859  Biso   1.000  C
  N21      1.0000 0.43259  0.39498  0.15458  Biso   1.000  N
  C185     1.0000 0.52088  0.43566  0.15013  Biso   1.000  C
  H222     1.0000 0.59737  0.51029  0.19491  Biso   1.000  H
  C186     1.0000 0.24049  0.32821  0.18753  Biso   1.000  C
  C187     1.0000 0.26980  0.43130  0.25022  Biso   1.000  C
  H223     1.0000 0.39999  0.35702  0.13610  Biso   1.000  H
  C188     1.0000 0.57857  0.42379  0.11018  Biso   1.000  C
  C189     1.0000 0.27080  0.27481  0.14920  Biso   1.000  C
  C190     1.0000 0.13533  0.31255  0.19936  Biso   1.000  C
  H224     1.0000 0.21161  0.40270  0.26021  Biso   1.000  H
  H225     1.0000 0.31920  0.42251  0.27109  Biso   1.000  H
  H226     1.0000 0.25987  0.49836  0.24561  Biso   1.000  H
  C191     1.0000 0.64048  0.33607  0.11384  Biso   1.000  C
  C192     1.0000 0.64477  0.51115  0.10426  Biso   1.000  C
  C193     1.0000 0.51558  0.41600  0.07026  Biso   1.000  C
  C194     1.0000 0.25329  0.28331  0.10712  Biso   1.000  C
  N22      1.0000 0.33479  0.20089  0.15248  Biso   1.000  N
  H227     1.0000 0.09637  0.31877  0.17440  Biso   1.000  H
  H228     1.0000 0.12747  0.24971  0.21110  Biso   1.000  H
  H229     1.0000 0.11631  0.35938  0.22001  Biso   1.000  H
  C195     1.0000 0.69095  0.28432  0.08502  Biso   1.000  C
  N23      1.0000 0.66514  0.29911  0.15248  Biso   1.000  N
  H230     1.0000 0.68838  0.49857  0.08088  Biso   1.000  H
  H231     1.0000 0.68280  0.51959  0.12980  Biso   1.000  H
  C196     1.0000 0.59108  0.60330  0.09523  Biso   1.000  C
  C197     1.0000 0.46047  0.50729  0.06167  Biso   1.000  C
  H232     1.0000 0.47090  0.36367  0.07389  Biso   1.000  H
  H233     1.0000 0.55555  0.40156  0.04590  Biso   1.000  H
  H234     1.0000 0.21132  0.32671  0.09482  Biso   1.000  H
  C198     1.0000 0.30898  0.21568  0.08502  Biso   1.000  C
  C199     1.0000 0.35952  0.16393  0.11384  Biso   1.000  C
  H235     1.0000 0.35902  0.18401  0.17681  Biso   1.000  H
  C200     1.0000 0.74664  0.21669  0.10712  Biso   1.000  C
  H236     1.0000 0.68909  0.29218  0.05569  Biso   1.000  H
  C201     1.0000 0.72920  0.22519  0.14920  Biso   1.000  C
  H237     1.0000 0.64098  0.31599  0.17681  Biso   1.000  H
  H238     1.0000 0.63655  0.65435  0.09011  Biso   1.000  H
  H239     1.0000 0.55305  0.62039  0.11991  Biso   1.000  H
  C202     1.0000 0.52638  0.59287  0.05693  Biso   1.000  C
  H240     1.0000 0.42329  0.49971  0.03591  Biso   1.000  H
  H241     1.0000 0.41636  0.51887  0.08489  Biso   1.000  H
  H242     1.0000 0.31091  0.20782  0.05569  Biso   1.000  H
  C203     1.0000 0.42136  0.07621  0.11018  Biso   1.000  C
  H243     1.0000 0.78868  0.17329  0.09482  Biso   1.000  H
  C204     1.0000 0.75951  0.17179  0.18753  Biso   1.000  C
  H244     1.0000 0.48835  0.65034  0.05359  Biso   1.000  H
  H245     1.0000 0.56498  0.58514  0.03149  Biso   1.000  H
  C205     1.0000 0.47905  0.06427  0.15013  Biso   1.000  C
  C206     1.0000 0.48442  0.08400  0.07026  Biso   1.000  C
  C207     1.0000 0.35516  0.98878  0.10426  Biso   1.000  C
  C208     1.0000 0.70017  0.11603  0.20859  Biso   1.000  C
  C209     1.0000 0.86467  0.18737  0.19936  Biso   1.000  C
  C210     1.0000 0.45818  0.02288  0.18836  Biso   1.000  C
  N24      1.0000 0.56741  0.10502  0.15458  Biso   1.000  N
  H246     1.0000 0.52910  0.13626  0.07389  Biso   1.000  H
  H247     1.0000 0.44438  0.09837  0.04590  Biso   1.000  H
  C211     1.0000 0.53946  0.99264  0.06167  Biso   1.000  C
  H248     1.0000 0.31162  0.00143  0.08088  Biso   1.000  H
  H249     1.0000 0.31720  0.98034  0.12980  Biso   1.000  H
  C212     1.0000 0.40885  0.89670  0.09523  Biso   1.000  C
  C213     1.0000 0.60330  0.09008  0.19526  Biso   1.000  C
  C214     1.0000 0.73020  0.06870  0.25022  Biso   1.000  C
  H250     1.0000 0.90356  0.18123  0.17440  Biso   1.000  H
  H251     1.0000 0.87246  0.25029  0.21110  Biso   1.000  H
  H252     1.0000 0.88369  0.14062  0.22001  Biso   1.000  H
  C215     1.0000 0.53546  0.03903  0.21600  Biso   1.000  C
  H253     1.0000 0.40256  0.98963  0.19491  Biso   1.000  H
  H254     1.0000 0.60001  0.14298  0.13610  Biso   1.000  H
  H255     1.0000 0.57671  0.00029  0.03591  Biso   1.000  H
  C216     1.0000 0.47355  0.90706  0.05693  Biso   1.000  C
  H256     1.0000 0.58357  0.98106  0.08489  Biso   1.000  H
  H257     1.0000 0.36338  0.84558  0.09011  Biso   1.000  H
  H258     1.0000 0.44688  0.87954  0.11991  Biso   1.000  H
  H259     1.0000 0.78839  0.09730  0.26021  Biso   1.000  H
  H260     1.0000 0.68080  0.07749  0.27109  Biso   1.000  H
  H261     1.0000 0.74006  0.00157  0.24561  Biso   1.000  H
  H262     1.0000 0.53939  0.01802  0.24399  Biso   1.000  H
  H263     1.0000 0.51158  0.84959  0.05359  Biso   1.000  H
  H264     1.0000 0.43502  0.91478  0.03149  Biso   1.000  H
  C217     1.0000 0.65706  0.27638  0.80693  Biso   1.000  C
  C218     1.0000 0.64670  0.34108  0.84523  Biso   1.000  C
  H265     1.0000 0.59959  0.23842  0.80359  Biso   1.000  H
  H266     1.0000 0.66478  0.31498  0.78149  Biso   1.000  H
  C219     1.0000 0.74271  0.21047  0.81167  Biso   1.000  C
  C220     1.0000 0.73878  0.39477  0.85426  Biso   1.000  C
  H267     1.0000 0.59558  0.38662  0.84011  Biso   1.000  H
  H268     1.0000 0.62961  0.30312  0.86991  Biso   1.000  H
  H269     1.0000 0.75029  0.17329  0.78591  Biso   1.000  H
  H270     1.0000 0.73106  0.16643  0.83489  Biso   1.000  H
  C221     1.0000 0.83400  0.26558  0.82026  Biso   1.000  C
  C222     1.0000 0.82614  0.32857  0.86018  Biso   1.000  C
  H271     1.0000 0.75136  0.43838  0.83088  Biso   1.000  H
  H272     1.0000 0.73034  0.43280  0.87980  Biso   1.000  H
  H273     1.0000 0.88626  0.22090  0.82389  Biso   1.000  H
  H274     1.0000 0.84837  0.30562  0.79590  Biso   1.000  H
  C223     1.0000 0.91385  0.39048  0.86384  Biso   1.000  C
  C224     1.0000 0.81427  0.27088  0.90013  Biso   1.000  C
  C225     1.0000 0.96568  0.44095  0.83502  Biso   1.000  C
  N25      1.0000 0.95089  0.41521  0.90248  Biso   1.000  N
  C226     1.0000 0.77288  0.29182  0.93836  Biso   1.000  C
  N26      1.0000 0.85495  0.18259  0.90458  Biso   1.000  N
  H275     1.0000 0.95775  0.43909  0.80569  Biso   1.000  H
  C227     1.0000 0.03331  0.49671  0.85712  Biso   1.000  C
  H276     1.0000 0.93394  0.39098  0.92681  Biso   1.000  H
  C228     1.0000 0.02481  0.47920  0.89920  Biso   1.000  C
  H277     1.0000 0.73971  0.34737  0.94491  Biso   1.000  H
  C229     1.0000 0.78896  0.21447  0.96600  Biso   1.000  C
  C230     1.0000 0.84008  0.14670  0.94526  Biso   1.000  C
  H278     1.0000 0.89298  0.14999  0.88610  Biso   1.000  H
  H279     1.0000 0.07671  0.53868  0.84482  Biso   1.000  H
  C231     1.0000 0.07821  0.50951  0.93753  Biso   1.000  C
  H280     1.0000 0.76794  0.21061  0.99399  Biso   1.000  H
  C232     1.0000 0.86596  0.04983  0.95859  Biso   1.000  C
  C233     1.0000 0.13397  0.45017  0.95859  Biso   1.000  C
  C234     1.0000 0.06263  0.61467  0.94936  Biso   1.000  C
  C235     1.0000 0.92179  0.99049  0.93753  Biso   1.000  C
  C236     1.0000 0.81870  0.01980  0.00022  Biso   1.000  C
  C237     1.0000 0.15992  0.35330  0.94526  Biso   1.000  C
  C238     1.0000 0.18130  0.48020  0.00022  Biso   1.000  C
  H281     1.0000 0.99964  0.62246  0.96110  Biso   1.000  H
  H282     1.0000 0.06877  0.65356  0.92440  Biso   1.000  H
  H283     1.0000 0.10938  0.63369  0.97001  Biso   1.000  H
  C239     1.0000 0.97519  0.02080  0.89920  Biso   1.000  C
  C240     1.0000 0.93737  0.88526  0.94936  Biso   1.000  C
  H284     1.0000 0.75157  0.00987  0.99561  Biso   1.000  H
  H285     1.0000 0.84730  0.96154  0.01021  Biso   1.000  H
  H286     1.0000 0.82749  0.06920  0.02109  Biso   1.000  H
  C241     1.0000 0.21097  0.28546  0.96600  Biso   1.000  C
  N27      1.0000 0.14498  0.31741  0.90458  Biso   1.000  N
  H287     1.0000 0.24836  0.49006  0.99561  Biso   1.000  H
  H288     1.0000 0.15270  0.53839  0.01021  Biso   1.000  H
  H289     1.0000 0.17251  0.43080  0.02109  Biso   1.000  H
  C242     1.0000 0.96669  0.00329  0.85712  Biso   1.000  C
  N28      1.0000 0.04911  0.08479  0.90248  Biso   1.000  N
  H290     1.0000 0.93116  0.84637  0.92440  Biso   1.000  H
  H291     1.0000 0.89055  0.86624  0.97001  Biso   1.000  H
  H292     1.0000 0.00029  0.87747  0.96110  Biso   1.000  H
  C243     1.0000 0.22712  0.20818  0.93836  Biso   1.000  C
  H293     1.0000 0.23198  0.28939  0.99399  Biso   1.000  H
  C244     1.0000 0.18566  0.22912  0.90013  Biso   1.000  C
  H294     1.0000 0.10702  0.35001  0.88610  Biso   1.000  H
  H295     1.0000 0.92329  0.96125  0.84482  Biso   1.000  H
  C245     1.0000 0.03432  0.05898  0.83502  Biso   1.000  C
  C246     1.0000 0.08607  0.10952  0.86384  Biso   1.000  C
  H296     1.0000 0.06599  0.10902  0.92681  Biso   1.000  H
  H297     1.0000 0.26029  0.15256  0.94491  Biso   1.000  H
  C247     1.0000 0.17379  0.17136  0.86018  Biso   1.000  C
  H298     1.0000 0.04218  0.06091  0.80569  Biso   1.000  H
  C248     1.0000 0.26122  0.10516  0.85426  Biso   1.000  C
  C249     1.0000 0.16600  0.23442  0.82026  Biso   1.000  C
  H299     1.0000 0.24857  0.06162  0.83088  Biso   1.000  H
  H300     1.0000 0.26959  0.06720  0.87980  Biso   1.000  H
  C250     1.0000 0.35330  0.15892  0.84523  Biso   1.000  C
  C251     1.0000 0.25729  0.28946  0.81167  Biso   1.000  C
  H301     1.0000 0.11367  0.27910  0.82389  Biso   1.000  H
  H302     1.0000 0.15163  0.19438  0.79590  Biso   1.000  H
  H303     1.0000 0.40442  0.11338  0.84011  Biso   1.000  H
  H304     1.0000 0.37039  0.19688  0.86991  Biso   1.000  H
  C252     1.0000 0.34287  0.22362  0.80693  Biso   1.000  C
  H305     1.0000 0.24971  0.32671  0.78591  Biso   1.000  H
  H306     1.0000 0.26887  0.33357  0.83489  Biso   1.000  H
  H307     1.0000 0.40041  0.26158  0.80359  Biso   1.000  H
  H308     1.0000 0.33522  0.18502  0.78149  Biso   1.000  H
  C253     1.0000 0.74271  0.71047  0.18833  Biso   1.000  C
  C254     1.0000 0.65706  0.77638  0.19307  Biso   1.000  C
  H309     1.0000 0.75029  0.67329  0.21409  Biso   1.000  H
  H310     1.0000 0.73106  0.66636  0.16511  Biso   1.000  H
  C255     1.0000 0.83400  0.76558  0.17974  Biso   1.000  C
  C256     1.0000 0.64670  0.84108  0.15477  Biso   1.000  C
  H311     1.0000 0.59959  0.73835  0.19641  Biso   1.000  H
  H312     1.0000 0.66478  0.81498  0.21851  Biso   1.000  H
  C257     1.0000 0.82614  0.82857  0.13982  Biso   1.000  C
  H313     1.0000 0.88626  0.72090  0.17611  Biso   1.000  H
  H314     1.0000 0.84837  0.80555  0.20410  Biso   1.000  H
  C258     1.0000 0.73878  0.89477  0.14574  Biso   1.000  C
  H315     1.0000 0.59558  0.88655  0.15989  Biso   1.000  H
  H316     1.0000 0.62961  0.80305  0.13009  Biso   1.000  H
  C259     1.0000 0.91385  0.89048  0.13616  Biso   1.000  C
  C260     1.0000 0.81427  0.77088  0.09987  Biso   1.000  C
  H317     1.0000 0.75136  0.93838  0.16912  Biso   1.000  H
  H318     1.0000 0.73034  0.93280  0.12020  Biso   1.000  H
  C261     1.0000 0.96568  0.94095  0.16498  Biso   1.000  C
  N29      1.0000 0.95089  0.91514  0.09752  Biso   1.000  N
  C262     1.0000 0.77288  0.79175  0.06164  Biso   1.000  C
  N30      1.0000 0.85495  0.68259  0.09542  Biso   1.000  N
  H319     1.0000 0.95775  0.93909  0.19431  Biso   1.000  H
  C263     1.0000 0.03331  0.99664  0.14288  Biso   1.000  C
  H320     1.0000 0.93394  0.89098  0.07319  Biso   1.000  H
  C264     1.0000 0.02481  0.97920  0.10080  Biso   1.000  C
  H321     1.0000 0.73971  0.84737  0.05509  Biso   1.000  H
  C265     1.0000 0.78896  0.71447  0.03400  Biso   1.000  C
  C266     1.0000 0.84008  0.64670  0.05474  Biso   1.000  C
  H322     1.0000 0.89298  0.64999  0.11390  Biso   1.000  H
  H323     1.0000 0.07671  0.03868  0.15518  Biso   1.000  H
  C267     1.0000 0.07821  0.00951  0.06247  Biso   1.000  C
  H324     1.0000 0.76794  0.71061  0.00601  Biso   1.000  H
  C268     1.0000 0.86596  0.54976  0.04141  Biso   1.000  C
  C269     1.0000 0.13397  0.95017  0.04141  Biso   1.000  C
  C270     1.0000 0.06263  0.11467  0.05064  Biso   1.000  C
  C271     1.0000 0.92179  0.49049  0.06247  Biso   1.000  C
  C272     1.0000 0.81870  0.51980  0.99978  Biso   1.000  C
  C273     1.0000 0.18130  0.98020  0.99978  Biso   1.000  C
  C274     1.0000 0.15992  0.85330  0.05474  Biso   1.000  C
  H325     1.0000 0.99964  0.12246  0.03890  Biso   1.000  H
  H326     1.0000 0.06877  0.15356  0.07560  Biso   1.000  H
  H327     1.0000 0.10938  0.13369  0.02999  Biso   1.000  H
  C275     1.0000 0.97519  0.52080  0.10080  Biso   1.000  C
  C276     1.0000 0.93737  0.38526  0.05064  Biso   1.000  C
  H328     1.0000 0.75157  0.50987  0.00439  Biso   1.000  H
  H329     1.0000 0.84730  0.46161  0.98979  Biso   1.000  H
  H330     1.0000 0.82749  0.56920  0.97891  Biso   1.000  H
  H331     1.0000 0.17251  0.93080  0.97891  Biso   1.000  H
  H332     1.0000 0.24836  0.99006  0.00439  Biso   1.000  H
  H333     1.0000 0.15270  0.03839  0.98979  Biso   1.000  H
  C277     1.0000 0.21097  0.78546  0.03400  Biso   1.000  C
  N31      1.0000 0.14498  0.81734  0.09542  Biso   1.000  N
  C278     1.0000 0.96669  0.50329  0.14288  Biso   1.000  C
  N32      1.0000 0.04911  0.58479  0.09752  Biso   1.000  N
  H334     1.0000 0.93116  0.34637  0.07560  Biso   1.000  H
  H335     1.0000 0.89055  0.36631  0.02999  Biso   1.000  H
  H336     1.0000 0.00029  0.37747  0.03890  Biso   1.000  H
  C279     1.0000 0.22712  0.70818  0.06164  Biso   1.000  C
  H337     1.0000 0.23198  0.78939  0.00601  Biso   1.000  H
  C280     1.0000 0.18566  0.72905  0.09987  Biso   1.000  C
  H338     1.0000 0.10702  0.84994  0.11390  Biso   1.000  H
  H339     1.0000 0.92329  0.46125  0.15518  Biso   1.000  H
  C281     1.0000 0.03432  0.55898  0.16498  Biso   1.000  C
  C282     1.0000 0.08607  0.60945  0.13616  Biso   1.000  C
  H340     1.0000 0.06599  0.60895  0.07319  Biso   1.000  H
  H341     1.0000 0.26029  0.65256  0.05509  Biso   1.000  H
  C283     1.0000 0.17379  0.67136  0.13982  Biso   1.000  C
  H342     1.0000 0.04218  0.56091  0.19431  Biso   1.000  H
  C284     1.0000 0.26122  0.60516  0.14574  Biso   1.000  C
  C285     1.0000 0.16600  0.73434  0.17974  Biso   1.000  C
  H343     1.0000 0.24857  0.56155  0.16912  Biso   1.000  H
  H344     1.0000 0.26959  0.56720  0.12020  Biso   1.000  H
  C286     1.0000 0.35330  0.65885  0.15477  Biso   1.000  C
  C287     1.0000 0.25729  0.78946  0.18833  Biso   1.000  C
  H345     1.0000 0.11367  0.77910  0.17611  Biso   1.000  H
  H346     1.0000 0.15163  0.69438  0.20410  Biso   1.000  H
  H347     1.0000 0.40442  0.61338  0.15989  Biso   1.000  H
  H348     1.0000 0.37039  0.69688  0.13009  Biso   1.000  H
  C288     1.0000 0.34287  0.72355  0.19307  Biso   1.000  C
  H349     1.0000 0.24971  0.82664  0.21409  Biso   1.000  H
  H350     1.0000 0.26887  0.83357  0.16511  Biso   1.000  H
  H351     1.0000 0.40041  0.76158  0.19641  Biso   1.000  H
  H352     1.0000 0.33522  0.68494  0.21851  Biso   1.000  H
