data_image0
_cell_length_a       7.341
_cell_length_b       10.914
_cell_length_c       31.789
_cell_angle_alpha    90
_cell_angle_beta     93.79
_cell_angle_gamma    90

_symmetry_space_group_name_H-M    "P 1"
_symmetry_int_tables_number       1

loop_
  _symmetry_equiv_pos_as_xyz
  'x, y, z'

loop_
  _atom_site_label
  _atom_site_occupancy
  _atom_site_fract_x
  _atom_site_fract_y
  _atom_site_fract_z
  _atom_site_thermal_displace_type
  _atom_site_B_iso_or_equiv
  _atom_site_type_symbol
  C1       1.0000 0.32993  0.84103  0.10710  Biso   1.000  C
  C2       1.0000 0.54193  0.84396  0.11390  Biso   1.000  C
  C3       1.0000 0.54193  0.84405  0.11390  Biso   1.000  C
  C4       1.0000 0.63903  0.87301  0.15331  Biso   1.000  C
  C5       1.0000 0.63890  0.87301  0.15331  Biso   1.000  C
  C6       1.0000 0.74603  0.86797  0.13020  Biso   1.000  C
  C7       1.0000 0.41700  0.80997  0.10621  Biso   1.000  C
  C8       1.0000 0.74589  0.86797  0.13020  Biso   1.000  C
  C9       1.0000 0.74603  0.86806  0.13020  Biso   1.000  C
  C10      1.0000 0.41700  0.81006  0.10621  Biso   1.000  C
  C11      1.0000 0.74589  0.86806  0.13020  Biso   1.000  C
  C12      1.0000 0.48703  0.78899  0.06630  Biso   1.000  C
  C13      1.0000 0.48690  0.78899  0.06630  Biso   1.000  C
  C14      1.0000 0.66801  0.83196  0.07749  Biso   1.000  C
  C15      1.0000 0.66801  0.83196  0.07752  Biso   1.000  C
  C16      1.0000 0.32994  0.84103  0.10713  Biso   1.000  C
  C17      1.0000 0.66801  0.83205  0.07749  Biso   1.000  C
  C18      1.0000 0.66801  0.83205  0.07752  Biso   1.000  C
  C19      1.0000 0.66788  0.83196  0.07752  Biso   1.000  C
  C20      1.0000 0.66788  0.83205  0.07752  Biso   1.000  C
  Si1      1.0000 0.48990  0.89426  0.19720  Biso   1.000  Si
  Si2      1.0000 0.48991  0.89426  0.19723  Biso   1.000  Si
  Si3      1.0000 0.48990  0.89436  0.19720  Biso   1.000  Si
  Si4      1.0000 0.48991  0.89436  0.19723  Biso   1.000  Si
  Si5      1.0000 0.48977  0.89426  0.19723  Biso   1.000  Si
  Si6      1.0000 0.48977  0.89436  0.19723  Biso   1.000  Si
  C21      1.0000 0.56794  0.85303  0.14051  Biso   1.000  C
  C22      1.0000 0.80793  0.85001  0.08900  Biso   1.000  C
  C23      1.0000 0.80794  0.85001  0.08903  Biso   1.000  C
  C24      1.0000 0.67103  0.80603  0.05760  Biso   1.000  C
  C25      1.0000 0.67090  0.80603  0.05763  Biso   1.000  C
  C26      1.0000 0.67089  0.80603  0.05760  Biso   1.000  C
  C27      1.0000 0.58901  0.79403  0.03900  Biso   1.000  C
  C28      1.0000 0.58902  0.79403  0.03903  Biso   1.000  C
  C29      1.0000 0.58889  0.79403  0.03903  Biso   1.000  C
  C30      1.0000 0.87295  0.85697  0.08011  Biso   1.000  C
  C31      1.0000 0.36489  0.75298  0.21542  Biso   1.000  C
  C32      1.0000 0.28894  0.99698  0.19089  Biso   1.000  C
  C33      1.0000 0.36502  0.75298  0.21539  Biso   1.000  C
  C34      1.0000 0.67595  0.93403  0.23850  Biso   1.000  C
  C35      1.0000 0.28895  0.99698  0.19092  Biso   1.000  C
  C36      1.0000 0.36503  0.75298  0.21542  Biso   1.000  C
  C37      1.0000 0.67596  0.93403  0.23853  Biso   1.000  C
  C38      1.0000 0.36004  0.04196  0.18850  Biso   1.000  C
  C39      1.0000 0.35992  0.04196  0.18853  Biso   1.000  C
  C40      1.0000 0.36004  0.04206  0.18850  Biso   1.000  C
  C41      1.0000 0.35992  0.04206  0.18853  Biso   1.000  C
  C42      1.0000 0.35991  0.04196  0.18850  Biso   1.000  C
  C43      1.0000 0.35991  0.04206  0.18850  Biso   1.000  C
  Si7      1.0000 0.72271  0.76452  0.99590  Biso   1.000  Si
  Si8      1.0000 0.72257  0.76452  0.99590  Biso   1.000  Si
  C44      1.0000 0.17495  0.04902  0.19811  Biso   1.000  C
  C45      1.0000 0.31601  0.11701  0.17459  Biso   1.000  C
  C46      1.0000 0.31602  0.11701  0.17462  Biso   1.000  C
  C47      1.0000 0.31589  0.11701  0.17462  Biso   1.000  C
  C48      1.0000 0.43496  0.14404  0.16659  Biso   1.000  C
  C49      1.0000 0.43497  0.14404  0.16662  Biso   1.000  C
  C50      1.0000 0.93102  0.65897  0.00410  Biso   1.000  C
  C51      1.0000 0.93089  0.65897  0.00413  Biso   1.000  C
  C52      1.0000 0.93088  0.65897  0.00410  Biso   1.000  C
  C53      1.0000 0.57803  0.67601  0.96970  Biso   1.000  C
  C54      1.0000 0.50001  0.70597  0.95410  Biso   1.000  C
  C55      1.0000 0.79799  0.90801  0.96860  Biso   1.000  C
  C56      1.0000 0.57790  0.67601  0.96970  Biso   1.000  C
  C57      1.0000 0.50002  0.70597  0.95413  Biso   1.000  C
  C58      1.0000 0.49988  0.70597  0.95413  Biso   1.000  C
  C59      1.0000 0.79785  0.90801  0.96860  Biso   1.000  C
  C60      1.0000 0.06102  0.15998  0.18749  Biso   1.000  C
  C61      1.0000 0.06103  0.15998  0.18752  Biso   1.000  C
  C62      1.0000 0.06089  0.15998  0.18752  Biso   1.000  C
  C63      1.0000 0.49398  0.16300  0.15911  Biso   1.000  C
  C64      1.0000 0.32896  0.25096  0.15511  Biso   1.000  C
  C65      1.0000 0.15297  0.20002  0.17321  Biso   1.000  C
  C66      1.0000 0.32896  0.25105  0.15511  Biso   1.000  C
  C67      1.0000 0.41998  0.72100  0.94959  Biso   1.000  C
  C68      1.0000 0.48597  0.58100  0.93978  Biso   1.000  C
  C69      1.0000 0.41999  0.72100  0.94962  Biso   1.000  C
  C70      1.0000 0.48597  0.58100  0.93982  Biso   1.000  C
  C71      1.0000 0.35796  0.78899  0.93900  Biso   1.000  C
  C72      1.0000 0.35797  0.78899  0.93903  Biso   1.000  C
  C73      1.0000 0.14194  0.25399  0.16419  Biso   1.000  C
  C74      1.0000 0.14195  0.25399  0.16422  Biso   1.000  C
  C75      1.0000 0.16201  0.31400  0.15290  Biso   1.000  C
  C76      1.0000 0.16187  0.31400  0.15290  Biso   1.000  C
  C77      1.0000 0.96500  0.16703  0.19231  Biso   1.000  C
  C78      1.0000 0.30294  0.63900  0.91951  Biso   1.000  C
  C79      1.0000 0.36099  0.85496  0.95719  Biso   1.000  C
  C80      1.0000 0.36100  0.85496  0.95722  Biso   1.000  C
  C81      1.0000 0.36099  0.85505  0.95719  Biso   1.000  C
  C82      1.0000 0.36100  0.85505  0.95722  Biso   1.000  C
  C83      1.0000 0.35300  0.50696  0.91832  Biso   1.000  C
  C84      1.0000 0.34995  0.53500  0.90911  Biso   1.000  C
  C85      1.0000 0.20799  0.74601  0.90901  Biso   1.000  C
  Si9      1.0000 0.98696  0.40920  0.14291  Biso   1.000  Si
  Si10     1.0000 0.98683  0.40920  0.14291  Biso   1.000  Si
  C86      1.0000 0.16296  0.67995  0.89830  Biso   1.000  C
  C87      1.0000 0.21397  0.61701  0.89470  Biso   1.000  C
  C88      1.0000 0.16297  0.67995  0.89833  Biso   1.000  C
  C89      1.0000 0.16296  0.68004  0.89830  Biso   1.000  C
  C90      1.0000 0.16297  0.68004  0.89833  Biso   1.000  C
  C91      1.0000 0.83704  0.32005  0.10170  Biso   1.000  C
  C92      1.0000 0.78603  0.38299  0.10530  Biso   1.000  C
  C93      1.0000 0.87101  0.47297  0.18991  Biso   1.000  C
  C94      1.0000 0.78604  0.38299  0.10533  Biso   1.000  C
  C95      1.0000 0.87101  0.47306  0.18991  Biso   1.000  C
  C96      1.0000 0.83690  0.32005  0.10170  Biso   1.000  C
  C97      1.0000 0.78590  0.38299  0.10533  Biso   1.000  C
  C98      1.0000 0.11896  0.54004  0.11911  Biso   1.000  C
  Si11     1.0000 0.01304  0.59080  0.85709  Biso   1.000  Si
  Si12     1.0000 0.01305  0.59080  0.85712  Biso   1.000  Si
  C99      1.0000 0.69706  0.36100  0.08049  Biso   1.000  C
  C100     1.0000 0.69693  0.36100  0.08052  Biso   1.000  C
  C101     1.0000 0.69692  0.36100  0.08049  Biso   1.000  C
  C102     1.0000 0.79201  0.25399  0.09099  Biso   1.000  C
  C103     1.0000 0.64700  0.49304  0.08168  Biso   1.000  C
  C104     1.0000 0.65005  0.46500  0.09089  Biso   1.000  C
  C105     1.0000 0.79202  0.25399  0.09102  Biso   1.000  C
  C106     1.0000 0.64701  0.49304  0.08172  Biso   1.000  C
  C107     1.0000 0.64992  0.46500  0.09092  Biso   1.000  C
  C108     1.0000 0.79189  0.25399  0.09102  Biso   1.000  C
  C109     1.0000 0.85806  0.74601  0.83581  Biso   1.000  C
  C110     1.0000 0.83799  0.68600  0.84710  Biso   1.000  C
  C111     1.0000 0.88104  0.45996  0.88089  Biso   1.000  C
  C112     1.0000 0.85792  0.74601  0.83581  Biso   1.000  C
  C113     1.0000 0.83800  0.68600  0.84713  Biso   1.000  C
  C114     1.0000 0.88091  0.45996  0.88092  Biso   1.000  C
  C115     1.0000 0.88104  0.46005  0.88089  Biso   1.000  C
  C116     1.0000 0.88091  0.46005  0.88092  Biso   1.000  C
  C117     1.0000 0.12899  0.52703  0.81009  Biso   1.000  C
  C118     1.0000 0.12900  0.52703  0.81012  Biso   1.000  C
  C119     1.0000 0.58002  0.27900  0.05041  Biso   1.000  C
  C120     1.0000 0.51403  0.41900  0.06022  Biso   1.000  C
  C121     1.0000 0.51390  0.41900  0.06022  Biso   1.000  C
  C122     1.0000 0.64204  0.21101  0.06100  Biso   1.000  C
  C123     1.0000 0.64190  0.21101  0.06100  Biso   1.000  C
  C124     1.0000 0.93898  0.84002  0.81251  Biso   1.000  C
  C125     1.0000 0.67104  0.74904  0.84489  Biso   1.000  C
  C126     1.0000 0.67105  0.74904  0.84492  Biso   1.000  C
  C127     1.0000 0.67091  0.74904  0.84492  Biso   1.000  C
  C128     1.0000 0.84703  0.79998  0.82679  Biso   1.000  C
  C129     1.0000 0.84704  0.79998  0.82683  Biso   1.000  C
  C130     1.0000 0.84690  0.79998  0.82683  Biso   1.000  C
  C131     1.0000 0.42197  0.32399  0.03030  Biso   1.000  C
  C132     1.0000 0.63901  0.14504  0.04281  Biso   1.000  C
  C133     1.0000 0.42198  0.32399  0.03033  Biso   1.000  C
  C134     1.0000 0.49999  0.29403  0.04590  Biso   1.000  C
  C135     1.0000 0.82505  0.95098  0.80189  Biso   1.000  C
  C136     1.0000 0.82493  0.95098  0.80192  Biso   1.000  C
  C137     1.0000 0.82492  0.95098  0.80189  Biso   1.000  C
  C138     1.0000 0.68399  0.88299  0.82541  Biso   1.000  C
  C139     1.0000 0.56504  0.85596  0.83341  Biso   1.000  C
  C140     1.0000 0.50602  0.83700  0.84089  Biso   1.000  C
  C141     1.0000 0.50603  0.83700  0.84092  Biso   1.000  C
  C142     1.0000 0.56504  0.85606  0.83341  Biso   1.000  C
  C143     1.0000 0.56490  0.85596  0.83341  Biso   1.000  C
  C144     1.0000 0.56490  0.85606  0.83341  Biso   1.000  C
  C145     1.0000 0.03500  0.83297  0.80769  Biso   1.000  C
  C146     1.0000 0.03501  0.83297  0.80772  Biso   1.000  C
  C147     1.0000 0.03500  0.83306  0.80769  Biso   1.000  C
  C148     1.0000 0.03501  0.83306  0.80772  Biso   1.000  C
  Si13     1.0000 0.27729  0.23548  0.00410  Biso   1.000  Si
  Si14     1.0000 0.27730  0.23548  0.00413  Biso   1.000  Si
  C149     1.0000 0.63996  0.95804  0.81150  Biso   1.000  C
  C150     1.0000 0.71106  0.00302  0.80911  Biso   1.000  C
  C151     1.0000 0.71092  0.00302  0.80911  Biso   1.000  C
  C152     1.0000 0.32897  0.19397  0.94240  Biso   1.000  C
  C153     1.0000 0.41099  0.20597  0.96100  Biso   1.000  C
  C154     1.0000 0.06898  0.34103  0.99590  Biso   1.000  C
  C155     1.0000 0.32897  0.19406  0.94240  Biso   1.000  C
  C156     1.0000 0.41099  0.20607  0.96100  Biso   1.000  C
  C157     1.0000 0.20201  0.09199  0.03140  Biso   1.000  C
  Si15     1.0000 0.51010  0.10574  0.80280  Biso   1.000  Si
  C158     1.0000 0.19207  0.14999  0.91100  Biso   1.000  C
  C159     1.0000 0.51297  0.21101  0.93370  Biso   1.000  C
  C160     1.0000 0.12705  0.14303  0.91989  Biso   1.000  C
  C161     1.0000 0.19193  0.14999  0.91100  Biso   1.000  C
  C162     1.0000 0.12706  0.14303  0.91992  Biso   1.000  C
  C163     1.0000 0.12692  0.14303  0.91992  Biso   1.000  C
  C164     1.0000 0.33199  0.16804  0.92251  Biso   1.000  C
  C165     1.0000 0.43206  0.14697  0.85949  Biso   1.000  C
  C166     1.0000 0.36097  0.12699  0.84669  Biso   1.000  C
  C167     1.0000 0.43193  0.14697  0.85952  Biso   1.000  C
  C168     1.0000 0.36098  0.12699  0.84672  Biso   1.000  C
  C169     1.0000 0.43206  0.14706  0.85949  Biso   1.000  C
  C170     1.0000 0.43193  0.14706  0.85952  Biso   1.000  C
  C171     1.0000 0.43192  0.14697  0.85949  Biso   1.000  C
  C172     1.0000 0.43192  0.14706  0.85949  Biso   1.000  C
  C173     1.0000 0.63498  0.24702  0.78461  Biso   1.000  C
  C174     1.0000 0.32405  0.06597  0.76150  Biso   1.000  C
  C175     1.0000 0.32405  0.06606  0.76150  Biso   1.000  C
  C176     1.0000 0.32391  0.06597  0.76150  Biso   1.000  C
  C177     1.0000 0.32391  0.06606  0.76150  Biso   1.000  C
  C178     1.0000 0.25397  0.13203  0.86980  Biso   1.000  C
  C179     1.0000 0.25398  0.13203  0.86983  Biso   1.000  C
  C180     1.0000 0.58300  0.19003  0.89379  Biso   1.000  C
  C181     1.0000 0.45807  0.15604  0.88610  Biso   1.000  C
  C182     1.0000 0.58301  0.19003  0.89382  Biso   1.000  C
  C183     1.0000 0.45794  0.15604  0.88613  Biso   1.000  C
  C184     1.0000 0.45793  0.15604  0.88610  Biso   1.000  C
  C185     1.0000 0.67007  0.15897  0.89290  Biso   1.000  C
  C186     1.0000 0.66993  0.15897  0.89290  Biso   1.000  C
  C187     1.0000 0.67007  0.15906  0.89290  Biso   1.000  C
  C188     1.0000 0.66993  0.15906  0.89290  Biso   1.000  C
  C189     1.0000 0.32993  0.84103  0.10710  Biso   1.000  C
  C190     1.0000 0.54193  0.84396  0.11390  Biso   1.000  C
  C191     1.0000 0.54193  0.84405  0.11390  Biso   1.000  C
  C192     1.0000 0.63903  0.87301  0.15331  Biso   1.000  C
  C193     1.0000 0.63890  0.87301  0.15331  Biso   1.000  C
  C194     1.0000 0.41700  0.80997  0.10621  Biso   1.000  C
  C195     1.0000 0.41700  0.81006  0.10621  Biso   1.000  C
  C196     1.0000 0.74589  0.86797  0.13020  Biso   1.000  C
  C197     1.0000 0.74589  0.86806  0.13020  Biso   1.000  C
  C198     1.0000 0.74603  0.86797  0.13020  Biso   1.000  C
  C199     1.0000 0.74603  0.86806  0.13020  Biso   1.000  C
  C200     1.0000 0.48703  0.78899  0.06630  Biso   1.000  C
  C201     1.0000 0.48690  0.78899  0.06630  Biso   1.000  C
  C202     1.0000 0.32994  0.84103  0.10713  Biso   1.000  C
  C203     1.0000 0.66801  0.83196  0.07749  Biso   1.000  C
  C204     1.0000 0.66801  0.83205  0.07749  Biso   1.000  C
  C205     1.0000 0.66801  0.83196  0.07752  Biso   1.000  C
  C206     1.0000 0.66801  0.83205  0.07752  Biso   1.000  C
  C207     1.0000 0.66788  0.83196  0.07752  Biso   1.000  C
  C208     1.0000 0.66788  0.83205  0.07752  Biso   1.000  C
  Si16     1.0000 0.48990  0.89426  0.19720  Biso   1.000  Si
  Si17     1.0000 0.48990  0.89436  0.19720  Biso   1.000  Si
  Si18     1.0000 0.48991  0.89426  0.19723  Biso   1.000  Si
  Si19     1.0000 0.48991  0.89436  0.19723  Biso   1.000  Si
  Si20     1.0000 0.48977  0.89426  0.19723  Biso   1.000  Si
  Si21     1.0000 0.48977  0.89436  0.19723  Biso   1.000  Si
  C209     1.0000 0.56794  0.85303  0.14051  Biso   1.000  C
  C210     1.0000 0.80793  0.85001  0.08900  Biso   1.000  C
  C211     1.0000 0.80794  0.85001  0.08903  Biso   1.000  C
  C212     1.0000 0.67103  0.80603  0.05760  Biso   1.000  C
  C213     1.0000 0.58901  0.79403  0.03900  Biso   1.000  C
  C214     1.0000 0.67090  0.80603  0.05763  Biso   1.000  C
  C215     1.0000 0.58902  0.79403  0.03903  Biso   1.000  C
  C216     1.0000 0.67089  0.80603  0.05760  Biso   1.000  C
  C217     1.0000 0.58889  0.79403  0.03903  Biso   1.000  C
  C218     1.0000 0.87295  0.85697  0.08011  Biso   1.000  C
  C219     1.0000 0.36489  0.75298  0.21542  Biso   1.000  C
  C220     1.0000 0.28894  0.99698  0.19089  Biso   1.000  C
  C221     1.0000 0.36502  0.75298  0.21539  Biso   1.000  C
  C222     1.0000 0.67595  0.93403  0.23850  Biso   1.000  C
  C223     1.0000 0.28895  0.99698  0.19092  Biso   1.000  C
  C224     1.0000 0.36503  0.75298  0.21542  Biso   1.000  C
  C225     1.0000 0.67596  0.93403  0.23853  Biso   1.000  C
  C226     1.0000 0.36004  0.04196  0.18850  Biso   1.000  C
  C227     1.0000 0.35992  0.04196  0.18853  Biso   1.000  C
  C228     1.0000 0.36004  0.04206  0.18850  Biso   1.000  C
  C229     1.0000 0.35992  0.04206  0.18853  Biso   1.000  C
  C230     1.0000 0.35991  0.04196  0.18850  Biso   1.000  C
  C231     1.0000 0.35991  0.04206  0.18850  Biso   1.000  C
  Si22     1.0000 0.72271  0.76452  0.99590  Biso   1.000  Si
  Si23     1.0000 0.72257  0.76452  0.99590  Biso   1.000  Si
  C232     1.0000 0.17495  0.04902  0.19811  Biso   1.000  C
  C233     1.0000 0.31601  0.11701  0.17459  Biso   1.000  C
  C234     1.0000 0.31602  0.11701  0.17462  Biso   1.000  C
  C235     1.0000 0.31589  0.11701  0.17462  Biso   1.000  C
  C236     1.0000 0.43496  0.14404  0.16659  Biso   1.000  C
  C237     1.0000 0.43497  0.14404  0.16662  Biso   1.000  C
  C238     1.0000 0.93102  0.65897  0.00410  Biso   1.000  C
  C239     1.0000 0.93089  0.65897  0.00413  Biso   1.000  C
  C240     1.0000 0.93088  0.65897  0.00410  Biso   1.000  C
  C241     1.0000 0.57803  0.67601  0.96970  Biso   1.000  C
  C242     1.0000 0.50001  0.70597  0.95410  Biso   1.000  C
  C243     1.0000 0.79799  0.90801  0.96860  Biso   1.000  C
  C244     1.0000 0.57790  0.67601  0.96970  Biso   1.000  C
  C245     1.0000 0.50002  0.70597  0.95413  Biso   1.000  C
  C246     1.0000 0.49988  0.70597  0.95413  Biso   1.000  C
  C247     1.0000 0.79785  0.90801  0.96860  Biso   1.000  C
  C248     1.0000 0.06102  0.15998  0.18749  Biso   1.000  C
  C249     1.0000 0.06103  0.15998  0.18752  Biso   1.000  C
  C250     1.0000 0.06089  0.15998  0.18752  Biso   1.000  C
  C251     1.0000 0.49398  0.16300  0.15911  Biso   1.000  C
  C252     1.0000 0.32896  0.25096  0.15511  Biso   1.000  C
  C253     1.0000 0.15297  0.20002  0.17321  Biso   1.000  C
  C254     1.0000 0.32896  0.25105  0.15511  Biso   1.000  C
  C255     1.0000 0.41998  0.72100  0.94959  Biso   1.000  C
  C256     1.0000 0.48597  0.58100  0.93978  Biso   1.000  C
  C257     1.0000 0.41999  0.72100  0.94962  Biso   1.000  C
  C258     1.0000 0.48597  0.58100  0.93982  Biso   1.000  C
  C259     1.0000 0.35796  0.78899  0.93900  Biso   1.000  C
  C260     1.0000 0.35797  0.78899  0.93903  Biso   1.000  C
  C261     1.0000 0.14194  0.25399  0.16419  Biso   1.000  C
  C262     1.0000 0.14195  0.25399  0.16422  Biso   1.000  C
  C263     1.0000 0.16201  0.31400  0.15290  Biso   1.000  C
  C264     1.0000 0.16187  0.31400  0.15290  Biso   1.000  C
  C265     1.0000 0.96500  0.16703  0.19231  Biso   1.000  C
  C266     1.0000 0.30294  0.63900  0.91951  Biso   1.000  C
  C267     1.0000 0.36099  0.85496  0.95719  Biso   1.000  C
  C268     1.0000 0.36100  0.85496  0.95722  Biso   1.000  C
  C269     1.0000 0.36099  0.85505  0.95719  Biso   1.000  C
  C270     1.0000 0.36100  0.85505  0.95722  Biso   1.000  C
  C271     1.0000 0.35300  0.50696  0.91832  Biso   1.000  C
  C272     1.0000 0.34995  0.53500  0.90911  Biso   1.000  C
  C273     1.0000 0.20799  0.74601  0.90901  Biso   1.000  C
  Si24     1.0000 0.98696  0.40920  0.14291  Biso   1.000  Si
  Si25     1.0000 0.98683  0.40920  0.14291  Biso   1.000  Si
  C274     1.0000 0.16296  0.67995  0.89830  Biso   1.000  C
  C275     1.0000 0.21397  0.61701  0.89470  Biso   1.000  C
  C276     1.0000 0.16297  0.67995  0.89833  Biso   1.000  C
  C277     1.0000 0.16296  0.68004  0.89830  Biso   1.000  C
  C278     1.0000 0.16297  0.68004  0.89833  Biso   1.000  C
  C279     1.0000 0.83704  0.32005  0.10170  Biso   1.000  C
  C280     1.0000 0.78603  0.38299  0.10530  Biso   1.000  C
  C281     1.0000 0.87101  0.47297  0.18991  Biso   1.000  C
  C282     1.0000 0.78604  0.38299  0.10533  Biso   1.000  C
  C283     1.0000 0.87101  0.47306  0.18991  Biso   1.000  C
  C284     1.0000 0.83690  0.32005  0.10170  Biso   1.000  C
  C285     1.0000 0.78590  0.38299  0.10533  Biso   1.000  C
  C286     1.0000 0.11896  0.54004  0.11911  Biso   1.000  C
  Si26     1.0000 0.01304  0.59080  0.85709  Biso   1.000  Si
  Si27     1.0000 0.01305  0.59080  0.85712  Biso   1.000  Si
  C287     1.0000 0.69706  0.36100  0.08049  Biso   1.000  C
  C288     1.0000 0.69693  0.36100  0.08052  Biso   1.000  C
  C289     1.0000 0.69692  0.36100  0.08049  Biso   1.000  C
  C290     1.0000 0.79201  0.25399  0.09099  Biso   1.000  C
  C291     1.0000 0.64700  0.49304  0.08168  Biso   1.000  C
  C292     1.0000 0.65005  0.46500  0.09089  Biso   1.000  C
  C293     1.0000 0.79202  0.25399  0.09102  Biso   1.000  C
  C294     1.0000 0.64701  0.49304  0.08172  Biso   1.000  C
  C295     1.0000 0.64992  0.46500  0.09092  Biso   1.000  C
  C296     1.0000 0.79189  0.25399  0.09102  Biso   1.000  C
  C297     1.0000 0.85806  0.74601  0.83581  Biso   1.000  C
  C298     1.0000 0.83799  0.68600  0.84710  Biso   1.000  C
  C299     1.0000 0.88104  0.45996  0.88089  Biso   1.000  C
  C300     1.0000 0.85792  0.74601  0.83581  Biso   1.000  C
  C301     1.0000 0.83800  0.68600  0.84713  Biso   1.000  C
  C302     1.0000 0.88091  0.45996  0.88092  Biso   1.000  C
  C303     1.0000 0.88104  0.46005  0.88089  Biso   1.000  C
  C304     1.0000 0.88091  0.46005  0.88092  Biso   1.000  C
  C305     1.0000 0.12899  0.52703  0.81009  Biso   1.000  C
  C306     1.0000 0.12900  0.52703  0.81012  Biso   1.000  C
  C307     1.0000 0.58002  0.27900  0.05041  Biso   1.000  C
  C308     1.0000 0.51403  0.41900  0.06022  Biso   1.000  C
  C309     1.0000 0.51390  0.41900  0.06022  Biso   1.000  C
  C310     1.0000 0.64204  0.21101  0.06100  Biso   1.000  C
  C311     1.0000 0.64190  0.21101  0.06100  Biso   1.000  C
  C312     1.0000 0.93898  0.84002  0.81251  Biso   1.000  C
  C313     1.0000 0.67104  0.74904  0.84489  Biso   1.000  C
  C314     1.0000 0.67105  0.74904  0.84492  Biso   1.000  C
  C315     1.0000 0.67091  0.74904  0.84492  Biso   1.000  C
  C316     1.0000 0.84703  0.79998  0.82679  Biso   1.000  C
  C317     1.0000 0.84704  0.79998  0.82683  Biso   1.000  C
  C318     1.0000 0.84690  0.79998  0.82683  Biso   1.000  C
  C319     1.0000 0.42197  0.32399  0.03030  Biso   1.000  C
  C320     1.0000 0.63901  0.14504  0.04281  Biso   1.000  C
  C321     1.0000 0.42198  0.32399  0.03033  Biso   1.000  C
  C322     1.0000 0.49999  0.29403  0.04590  Biso   1.000  C
  C323     1.0000 0.82505  0.95098  0.80189  Biso   1.000  C
  C324     1.0000 0.82493  0.95098  0.80192  Biso   1.000  C
  C325     1.0000 0.82492  0.95098  0.80189  Biso   1.000  C
  C326     1.0000 0.68399  0.88299  0.82541  Biso   1.000  C
  C327     1.0000 0.56504  0.85596  0.83341  Biso   1.000  C
  C328     1.0000 0.50602  0.83700  0.84089  Biso   1.000  C
  C329     1.0000 0.50603  0.83700  0.84092  Biso   1.000  C
  C330     1.0000 0.56504  0.85606  0.83341  Biso   1.000  C
  C331     1.0000 0.56490  0.85596  0.83341  Biso   1.000  C
  C332     1.0000 0.56490  0.85606  0.83341  Biso   1.000  C
  C333     1.0000 0.03500  0.83297  0.80769  Biso   1.000  C
  C334     1.0000 0.03501  0.83297  0.80772  Biso   1.000  C
  C335     1.0000 0.03500  0.83306  0.80769  Biso   1.000  C
  C336     1.0000 0.03501  0.83306  0.80772  Biso   1.000  C
  Si28     1.0000 0.27729  0.23548  0.00410  Biso   1.000  Si
  Si29     1.0000 0.27730  0.23548  0.00413  Biso   1.000  Si
  C337     1.0000 0.63996  0.95804  0.81150  Biso   1.000  C
  C338     1.0000 0.71106  0.00302  0.80911  Biso   1.000  C
  C339     1.0000 0.71092  0.00302  0.80911  Biso   1.000  C
  C340     1.0000 0.32897  0.19397  0.94240  Biso   1.000  C
  C341     1.0000 0.41099  0.20597  0.96100  Biso   1.000  C
  C342     1.0000 0.06898  0.34103  0.99590  Biso   1.000  C
  C343     1.0000 0.32897  0.19406  0.94240  Biso   1.000  C
  C344     1.0000 0.41099  0.20607  0.96100  Biso   1.000  C
  C345     1.0000 0.20201  0.09199  0.03140  Biso   1.000  C
  Si30     1.0000 0.51010  0.10574  0.80280  Biso   1.000  Si
  C346     1.0000 0.19207  0.14999  0.91100  Biso   1.000  C
  C347     1.0000 0.51297  0.21101  0.93370  Biso   1.000  C
  C348     1.0000 0.12705  0.14303  0.91989  Biso   1.000  C
  C349     1.0000 0.19193  0.14999  0.91100  Biso   1.000  C
  C350     1.0000 0.12706  0.14303  0.91992  Biso   1.000  C
  C351     1.0000 0.12692  0.14303  0.91992  Biso   1.000  C
  C352     1.0000 0.33199  0.16804  0.92251  Biso   1.000  C
  C353     1.0000 0.43206  0.14697  0.85949  Biso   1.000  C
  C354     1.0000 0.36097  0.12699  0.84669  Biso   1.000  C
  C355     1.0000 0.43193  0.14697  0.85952  Biso   1.000  C
  C356     1.0000 0.36098  0.12699  0.84672  Biso   1.000  C
  C357     1.0000 0.43206  0.14706  0.85949  Biso   1.000  C
  C358     1.0000 0.43193  0.14706  0.85952  Biso   1.000  C
  C359     1.0000 0.43192  0.14697  0.85949  Biso   1.000  C
  C360     1.0000 0.43192  0.14706  0.85949  Biso   1.000  C
  C361     1.0000 0.63498  0.24702  0.78461  Biso   1.000  C
  C362     1.0000 0.32405  0.06597  0.76150  Biso   1.000  C
  C363     1.0000 0.32405  0.06606  0.76150  Biso   1.000  C
  C364     1.0000 0.32391  0.06597  0.76150  Biso   1.000  C
  C365     1.0000 0.32391  0.06606  0.76150  Biso   1.000  C
  C366     1.0000 0.25397  0.13203  0.86980  Biso   1.000  C
  C367     1.0000 0.25398  0.13203  0.86983  Biso   1.000  C
  C368     1.0000 0.58300  0.19003  0.89379  Biso   1.000  C
  C369     1.0000 0.45807  0.15604  0.88610  Biso   1.000  C
  C370     1.0000 0.58301  0.19003  0.89382  Biso   1.000  C
  C371     1.0000 0.45794  0.15604  0.88613  Biso   1.000  C
  C372     1.0000 0.45793  0.15604  0.88610  Biso   1.000  C
  C373     1.0000 0.67007  0.15897  0.89290  Biso   1.000  C
  C374     1.0000 0.66993  0.15897  0.89290  Biso   1.000  C
  C375     1.0000 0.67007  0.15906  0.89290  Biso   1.000  C
  C376     1.0000 0.66993  0.15906  0.89290  Biso   1.000  C
  C377     1.0000 0.32993  0.84103  0.10710  Biso   1.000  C
  C378     1.0000 0.54193  0.84396  0.11390  Biso   1.000  C
  C379     1.0000 0.54193  0.84405  0.11390  Biso   1.000  C
  C380     1.0000 0.63890  0.87301  0.15331  Biso   1.000  C
  C381     1.0000 0.63903  0.87301  0.15331  Biso   1.000  C
  C382     1.0000 0.41700  0.80997  0.10621  Biso   1.000  C
  C383     1.0000 0.74589  0.86797  0.13020  Biso   1.000  C
  C384     1.0000 0.41700  0.81006  0.10621  Biso   1.000  C
  C385     1.0000 0.74589  0.86806  0.13020  Biso   1.000  C
  C386     1.0000 0.74603  0.86797  0.13020  Biso   1.000  C
  C387     1.0000 0.74603  0.86806  0.13020  Biso   1.000  C
  C388     1.0000 0.48690  0.78899  0.06630  Biso   1.000  C
  C389     1.0000 0.48703  0.78899  0.06630  Biso   1.000  C
  C390     1.0000 0.32994  0.84103  0.10713  Biso   1.000  C
  C391     1.0000 0.66801  0.83196  0.07749  Biso   1.000  C
  C392     1.0000 0.66801  0.83196  0.07752  Biso   1.000  C
  C393     1.0000 0.66801  0.83205  0.07749  Biso   1.000  C
  C394     1.0000 0.66801  0.83205  0.07752  Biso   1.000  C
  C395     1.0000 0.66788  0.83196  0.07752  Biso   1.000  C
  C396     1.0000 0.66788  0.83205  0.07752  Biso   1.000  C
  Si31     1.0000 0.48990  0.89426  0.19720  Biso   1.000  Si
  Si32     1.0000 0.48991  0.89426  0.19723  Biso   1.000  Si
  Si33     1.0000 0.48990  0.89436  0.19720  Biso   1.000  Si
  Si34     1.0000 0.48991  0.89436  0.19723  Biso   1.000  Si
  Si35     1.0000 0.48977  0.89426  0.19723  Biso   1.000  Si
  Si36     1.0000 0.48977  0.89436  0.19723  Biso   1.000  Si
  C397     1.0000 0.56794  0.85303  0.14051  Biso   1.000  C
  C398     1.0000 0.80793  0.85001  0.08900  Biso   1.000  C
  C399     1.0000 0.80794  0.85001  0.08903  Biso   1.000  C
  C400     1.0000 0.58901  0.79403  0.03900  Biso   1.000  C
  C401     1.0000 0.67090  0.80603  0.05763  Biso   1.000  C
  C402     1.0000 0.67103  0.80603  0.05760  Biso   1.000  C
  C403     1.0000 0.58902  0.79403  0.03903  Biso   1.000  C
  C404     1.0000 0.67089  0.80603  0.05760  Biso   1.000  C
  C405     1.0000 0.58889  0.79403  0.03903  Biso   1.000  C
  C406     1.0000 0.87295  0.85697  0.08011  Biso   1.000  C
  C407     1.0000 0.36502  0.75298  0.21539  Biso   1.000  C
  C408     1.0000 0.28894  0.99698  0.19089  Biso   1.000  C
  C409     1.0000 0.67595  0.93403  0.23850  Biso   1.000  C
  C410     1.0000 0.28895  0.99698  0.19092  Biso   1.000  C
  C411     1.0000 0.67596  0.93403  0.23853  Biso   1.000  C
  C412     1.0000 0.36503  0.75298  0.21542  Biso   1.000  C
  C413     1.0000 0.36489  0.75298  0.21542  Biso   1.000  C
  C414     1.0000 0.36004  0.04196  0.18850  Biso   1.000  C
  C415     1.0000 0.35992  0.04196  0.18853  Biso   1.000  C
  C416     1.0000 0.36004  0.04206  0.18850  Biso   1.000  C
  C417     1.0000 0.35992  0.04206  0.18853  Biso   1.000  C
  C418     1.0000 0.35991  0.04196  0.18850  Biso   1.000  C
  C419     1.0000 0.35991  0.04206  0.18850  Biso   1.000  C
  Si37     1.0000 0.72271  0.76452  0.99590  Biso   1.000  Si
  Si38     1.0000 0.72257  0.76452  0.99590  Biso   1.000  Si
  C420     1.0000 0.17495  0.04902  0.19811  Biso   1.000  C
  C421     1.0000 0.31601  0.11701  0.17459  Biso   1.000  C
  C422     1.0000 0.31602  0.11701  0.17462  Biso   1.000  C
  C423     1.0000 0.31589  0.11701  0.17462  Biso   1.000  C
  C424     1.0000 0.43496  0.14404  0.16659  Biso   1.000  C
  C425     1.0000 0.43497  0.14404  0.16662  Biso   1.000  C
  C426     1.0000 0.93089  0.65897  0.00413  Biso   1.000  C
  C427     1.0000 0.57803  0.67601  0.96970  Biso   1.000  C
  C428     1.0000 0.50001  0.70597  0.95410  Biso   1.000  C
  C429     1.0000 0.79799  0.90801  0.96860  Biso   1.000  C
  C430     1.0000 0.57790  0.67601  0.96970  Biso   1.000  C
  C431     1.0000 0.50002  0.70597  0.95413  Biso   1.000  C
  C432     1.0000 0.49988  0.70597  0.95413  Biso   1.000  C
  C433     1.0000 0.79785  0.90801  0.96860  Biso   1.000  C
  C434     1.0000 0.93102  0.65897  0.00410  Biso   1.000  C
  C435     1.0000 0.93088  0.65897  0.00410  Biso   1.000  C
  C436     1.0000 0.06102  0.15998  0.18749  Biso   1.000  C
  C437     1.0000 0.06103  0.15998  0.18752  Biso   1.000  C
  C438     1.0000 0.06089  0.15998  0.18752  Biso   1.000  C
  C439     1.0000 0.49398  0.16300  0.15911  Biso   1.000  C
  C440     1.0000 0.32896  0.25096  0.15511  Biso   1.000  C
  C441     1.0000 0.15297  0.20002  0.17321  Biso   1.000  C
  C442     1.0000 0.32896  0.25105  0.15511  Biso   1.000  C
  C443     1.0000 0.41998  0.72100  0.94959  Biso   1.000  C
  C444     1.0000 0.48597  0.58100  0.93978  Biso   1.000  C
  C445     1.0000 0.41999  0.72100  0.94962  Biso   1.000  C
  C446     1.0000 0.48597  0.58100  0.93982  Biso   1.000  C
  C447     1.0000 0.35796  0.78899  0.93900  Biso   1.000  C
  C448     1.0000 0.35797  0.78899  0.93903  Biso   1.000  C
  C449     1.0000 0.14194  0.25399  0.16419  Biso   1.000  C
  C450     1.0000 0.14195  0.25399  0.16422  Biso   1.000  C
  C451     1.0000 0.16201  0.31400  0.15290  Biso   1.000  C
  C452     1.0000 0.16187  0.31400  0.15290  Biso   1.000  C
  C453     1.0000 0.96500  0.16703  0.19231  Biso   1.000  C
  C454     1.0000 0.30294  0.63900  0.91951  Biso   1.000  C
  C455     1.0000 0.36099  0.85496  0.95719  Biso   1.000  C
  C456     1.0000 0.36100  0.85496  0.95722  Biso   1.000  C
  C457     1.0000 0.36099  0.85505  0.95719  Biso   1.000  C
  C458     1.0000 0.36100  0.85505  0.95722  Biso   1.000  C
  C459     1.0000 0.35300  0.50696  0.91832  Biso   1.000  C
  C460     1.0000 0.34995  0.53500  0.90911  Biso   1.000  C
  C461     1.0000 0.20799  0.74601  0.90901  Biso   1.000  C
  Si39     1.0000 0.98696  0.40920  0.14291  Biso   1.000  Si
  Si40     1.0000 0.98683  0.40920  0.14291  Biso   1.000  Si
  C462     1.0000 0.16296  0.67995  0.89830  Biso   1.000  C
  C463     1.0000 0.21397  0.61701  0.89470  Biso   1.000  C
  C464     1.0000 0.16297  0.67995  0.89833  Biso   1.000  C
  C465     1.0000 0.16296  0.68004  0.89830  Biso   1.000  C
  C466     1.0000 0.16297  0.68004  0.89833  Biso   1.000  C
  C467     1.0000 0.83704  0.32005  0.10170  Biso   1.000  C
  C468     1.0000 0.78603  0.38299  0.10530  Biso   1.000  C
  C469     1.0000 0.87101  0.47297  0.18991  Biso   1.000  C
  C470     1.0000 0.78604  0.38299  0.10533  Biso   1.000  C
  C471     1.0000 0.87101  0.47306  0.18991  Biso   1.000  C
  C472     1.0000 0.83690  0.32005  0.10170  Biso   1.000  C
  C473     1.0000 0.78590  0.38299  0.10533  Biso   1.000  C
  C474     1.0000 0.11896  0.54004  0.11911  Biso   1.000  C
  Si41     1.0000 0.01304  0.59080  0.85709  Biso   1.000  Si
  Si42     1.0000 0.01305  0.59080  0.85712  Biso   1.000  Si
  C475     1.0000 0.69706  0.36100  0.08049  Biso   1.000  C
  C476     1.0000 0.69693  0.36100  0.08052  Biso   1.000  C
  C477     1.0000 0.69692  0.36100  0.08049  Biso   1.000  C
  C478     1.0000 0.79201  0.25399  0.09099  Biso   1.000  C
  C479     1.0000 0.64700  0.49304  0.08168  Biso   1.000  C
  C480     1.0000 0.65005  0.46500  0.09089  Biso   1.000  C
  C481     1.0000 0.79202  0.25399  0.09102  Biso   1.000  C
  C482     1.0000 0.64701  0.49304  0.08172  Biso   1.000  C
  C483     1.0000 0.64992  0.46500  0.09092  Biso   1.000  C
  C484     1.0000 0.79189  0.25399  0.09102  Biso   1.000  C
  C485     1.0000 0.85806  0.74601  0.83581  Biso   1.000  C
  C486     1.0000 0.83799  0.68600  0.84710  Biso   1.000  C
  C487     1.0000 0.88104  0.45996  0.88089  Biso   1.000  C
  C488     1.0000 0.85792  0.74601  0.83581  Biso   1.000  C
  C489     1.0000 0.83800  0.68600  0.84713  Biso   1.000  C
  C490     1.0000 0.88091  0.45996  0.88092  Biso   1.000  C
  C491     1.0000 0.88104  0.46005  0.88089  Biso   1.000  C
  C492     1.0000 0.88091  0.46005  0.88092  Biso   1.000  C
  C493     1.0000 0.12899  0.52703  0.81009  Biso   1.000  C
  C494     1.0000 0.12900  0.52703  0.81012  Biso   1.000  C
  C495     1.0000 0.58002  0.27900  0.05041  Biso   1.000  C
  C496     1.0000 0.51403  0.41900  0.06022  Biso   1.000  C
  C497     1.0000 0.51390  0.41900  0.06022  Biso   1.000  C
  C498     1.0000 0.64204  0.21101  0.06100  Biso   1.000  C
  C499     1.0000 0.64190  0.21101  0.06100  Biso   1.000  C
  C500     1.0000 0.93898  0.84002  0.81251  Biso   1.000  C
  C501     1.0000 0.67104  0.74904  0.84489  Biso   1.000  C
  C502     1.0000 0.67105  0.74904  0.84492  Biso   1.000  C
  C503     1.0000 0.67091  0.74904  0.84492  Biso   1.000  C
  C504     1.0000 0.84703  0.79998  0.82679  Biso   1.000  C
  C505     1.0000 0.84704  0.79998  0.82683  Biso   1.000  C
  C506     1.0000 0.84690  0.79998  0.82683  Biso   1.000  C
  C507     1.0000 0.42197  0.32399  0.03030  Biso   1.000  C
  C508     1.0000 0.63901  0.14504  0.04281  Biso   1.000  C
  C509     1.0000 0.42198  0.32399  0.03033  Biso   1.000  C
  C510     1.0000 0.49999  0.29403  0.04590  Biso   1.000  C
  C511     1.0000 0.82505  0.95098  0.80189  Biso   1.000  C
  C512     1.0000 0.82493  0.95098  0.80192  Biso   1.000  C
  C513     1.0000 0.82492  0.95098  0.80189  Biso   1.000  C
  C514     1.0000 0.68399  0.88299  0.82541  Biso   1.000  C
  C515     1.0000 0.56504  0.85596  0.83341  Biso   1.000  C
  C516     1.0000 0.50602  0.83700  0.84089  Biso   1.000  C
  C517     1.0000 0.50603  0.83700  0.84092  Biso   1.000  C
  C518     1.0000 0.56504  0.85606  0.83341  Biso   1.000  C
  C519     1.0000 0.56490  0.85596  0.83341  Biso   1.000  C
  C520     1.0000 0.56490  0.85606  0.83341  Biso   1.000  C
  C521     1.0000 0.03500  0.83297  0.80769  Biso   1.000  C
  C522     1.0000 0.03501  0.83297  0.80772  Biso   1.000  C
  C523     1.0000 0.03500  0.83306  0.80769  Biso   1.000  C
  C524     1.0000 0.03501  0.83306  0.80772  Biso   1.000  C
  Si43     1.0000 0.27729  0.23548  0.00410  Biso   1.000  Si
  Si44     1.0000 0.27730  0.23548  0.00413  Biso   1.000  Si
  C525     1.0000 0.63996  0.95804  0.81150  Biso   1.000  C
  C526     1.0000 0.71106  0.00302  0.80911  Biso   1.000  C
  C527     1.0000 0.71092  0.00302  0.80911  Biso   1.000  C
  C528     1.0000 0.32897  0.19397  0.94240  Biso   1.000  C
  C529     1.0000 0.41099  0.20597  0.96100  Biso   1.000  C
  C530     1.0000 0.06898  0.34103  0.99590  Biso   1.000  C
  C531     1.0000 0.32897  0.19406  0.94240  Biso   1.000  C
  C532     1.0000 0.41099  0.20607  0.96100  Biso   1.000  C
  C533     1.0000 0.20201  0.09199  0.03140  Biso   1.000  C
  Si45     1.0000 0.51010  0.10574  0.80280  Biso   1.000  Si
  C534     1.0000 0.19207  0.14999  0.91100  Biso   1.000  C
  C535     1.0000 0.51297  0.21101  0.93370  Biso   1.000  C
  C536     1.0000 0.12705  0.14303  0.91989  Biso   1.000  C
  C537     1.0000 0.19193  0.14999  0.91100  Biso   1.000  C
  C538     1.0000 0.12706  0.14303  0.91992  Biso   1.000  C
  C539     1.0000 0.12692  0.14303  0.91992  Biso   1.000  C
  C540     1.0000 0.33199  0.16804  0.92251  Biso   1.000  C
  C541     1.0000 0.43206  0.14697  0.85949  Biso   1.000  C
  C542     1.0000 0.36097  0.12699  0.84669  Biso   1.000  C
  C543     1.0000 0.43193  0.14697  0.85952  Biso   1.000  C
  C544     1.0000 0.36098  0.12699  0.84672  Biso   1.000  C
  C545     1.0000 0.43206  0.14706  0.85949  Biso   1.000  C
  C546     1.0000 0.43193  0.14706  0.85952  Biso   1.000  C
  C547     1.0000 0.43192  0.14697  0.85949  Biso   1.000  C
  C548     1.0000 0.43192  0.14706  0.85949  Biso   1.000  C
  C549     1.0000 0.63498  0.24702  0.78461  Biso   1.000  C
  C550     1.0000 0.32405  0.06597  0.76150  Biso   1.000  C
  C551     1.0000 0.32405  0.06606  0.76150  Biso   1.000  C
  C552     1.0000 0.32391  0.06597  0.76150  Biso   1.000  C
  C553     1.0000 0.32391  0.06606  0.76150  Biso   1.000  C
  C554     1.0000 0.25397  0.13203  0.86980  Biso   1.000  C
  C555     1.0000 0.25398  0.13203  0.86983  Biso   1.000  C
  C556     1.0000 0.58300  0.19003  0.89379  Biso   1.000  C
  C557     1.0000 0.45807  0.15604  0.88610  Biso   1.000  C
  C558     1.0000 0.58301  0.19003  0.89382  Biso   1.000  C
  C559     1.0000 0.45794  0.15604  0.88613  Biso   1.000  C
  C560     1.0000 0.45793  0.15604  0.88610  Biso   1.000  C
  C561     1.0000 0.67007  0.15897  0.89290  Biso   1.000  C
  C562     1.0000 0.66993  0.15897  0.89290  Biso   1.000  C
  C563     1.0000 0.67007  0.15906  0.89290  Biso   1.000  C
  C564     1.0000 0.66993  0.15906  0.89290  Biso   1.000  C
  C565     1.0000 0.32993  0.84103  0.10710  Biso   1.000  C
  C566     1.0000 0.54193  0.84396  0.11390  Biso   1.000  C
  C567     1.0000 0.54193  0.84405  0.11390  Biso   1.000  C
  C568     1.0000 0.63890  0.87301  0.15331  Biso   1.000  C
  C569     1.0000 0.63903  0.87301  0.15331  Biso   1.000  C
  C570     1.0000 0.41700  0.80997  0.10621  Biso   1.000  C
  C571     1.0000 0.41700  0.81006  0.10621  Biso   1.000  C
  C572     1.0000 0.74603  0.86797  0.13020  Biso   1.000  C
  C573     1.0000 0.74589  0.86797  0.13020  Biso   1.000  C
  C574     1.0000 0.74603  0.86806  0.13020  Biso   1.000  C
  C575     1.0000 0.74589  0.86806  0.13020  Biso   1.000  C
  C576     1.0000 0.48690  0.78899  0.06630  Biso   1.000  C
  C577     1.0000 0.48703  0.78899  0.06630  Biso   1.000  C
  C578     1.0000 0.32994  0.84103  0.10713  Biso   1.000  C
  C579     1.0000 0.66801  0.83196  0.07749  Biso   1.000  C
  C580     1.0000 0.66801  0.83196  0.07752  Biso   1.000  C
  C581     1.0000 0.66801  0.83205  0.07749  Biso   1.000  C
  C582     1.0000 0.66801  0.83205  0.07752  Biso   1.000  C
  C583     1.0000 0.66788  0.83196  0.07752  Biso   1.000  C
  C584     1.0000 0.66788  0.83205  0.07752  Biso   1.000  C
  Si46     1.0000 0.48990  0.89426  0.19720  Biso   1.000  Si
  Si47     1.0000 0.48991  0.89426  0.19723  Biso   1.000  Si
  Si48     1.0000 0.48990  0.89436  0.19720  Biso   1.000  Si
  Si49     1.0000 0.48991  0.89436  0.19723  Biso   1.000  Si
  Si50     1.0000 0.48977  0.89426  0.19723  Biso   1.000  Si
  Si51     1.0000 0.48977  0.89436  0.19723  Biso   1.000  Si
  C585     1.0000 0.56794  0.85303  0.14051  Biso   1.000  C
  C586     1.0000 0.80793  0.85001  0.08900  Biso   1.000  C
  C587     1.0000 0.80794  0.85001  0.08903  Biso   1.000  C
  C588     1.0000 0.58901  0.79403  0.03900  Biso   1.000  C
  C589     1.0000 0.67090  0.80603  0.05763  Biso   1.000  C
  C590     1.0000 0.67103  0.80603  0.05760  Biso   1.000  C
  C591     1.0000 0.58902  0.79403  0.03903  Biso   1.000  C
  C592     1.0000 0.67089  0.80603  0.05760  Biso   1.000  C
  C593     1.0000 0.58889  0.79403  0.03903  Biso   1.000  C
  C594     1.0000 0.87295  0.85697  0.08011  Biso   1.000  C
  C595     1.0000 0.36502  0.75298  0.21539  Biso   1.000  C
  C596     1.0000 0.28894  0.99698  0.19089  Biso   1.000  C
  C597     1.0000 0.67595  0.93403  0.23850  Biso   1.000  C
  C598     1.0000 0.28895  0.99698  0.19092  Biso   1.000  C
  C599     1.0000 0.67596  0.93403  0.23853  Biso   1.000  C
  C600     1.0000 0.36503  0.75298  0.21542  Biso   1.000  C
  C601     1.0000 0.36489  0.75298  0.21542  Biso   1.000  C
  C602     1.0000 0.36004  0.04196  0.18850  Biso   1.000  C
  C603     1.0000 0.35992  0.04196  0.18853  Biso   1.000  C
  C604     1.0000 0.36004  0.04206  0.18850  Biso   1.000  C
  C605     1.0000 0.35992  0.04206  0.18853  Biso   1.000  C
  C606     1.0000 0.35991  0.04196  0.18850  Biso   1.000  C
  C607     1.0000 0.35991  0.04206  0.18850  Biso   1.000  C
  Si52     1.0000 0.72271  0.76452  0.99590  Biso   1.000  Si
  Si53     1.0000 0.72257  0.76452  0.99590  Biso   1.000  Si
  C608     1.0000 0.17495  0.04902  0.19811  Biso   1.000  C
  C609     1.0000 0.31601  0.11701  0.17459  Biso   1.000  C
  C610     1.0000 0.31602  0.11701  0.17462  Biso   1.000  C
  C611     1.0000 0.31589  0.11701  0.17462  Biso   1.000  C
  C612     1.0000 0.43496  0.14404  0.16659  Biso   1.000  C
  C613     1.0000 0.43497  0.14404  0.16662  Biso   1.000  C
  C614     1.0000 0.93089  0.65897  0.00413  Biso   1.000  C
  C615     1.0000 0.57803  0.67601  0.96970  Biso   1.000  C
  C616     1.0000 0.50001  0.70597  0.95410  Biso   1.000  C
  C617     1.0000 0.79799  0.90801  0.96860  Biso   1.000  C
  C618     1.0000 0.57790  0.67601  0.96970  Biso   1.000  C
  C619     1.0000 0.50002  0.70597  0.95413  Biso   1.000  C
  C620     1.0000 0.49988  0.70597  0.95413  Biso   1.000  C
  C621     1.0000 0.79785  0.90801  0.96860  Biso   1.000  C
  C622     1.0000 0.93102  0.65897  0.00410  Biso   1.000  C
  C623     1.0000 0.93088  0.65897  0.00410  Biso   1.000  C
  C624     1.0000 0.06102  0.15998  0.18749  Biso   1.000  C
  C625     1.0000 0.06103  0.15998  0.18752  Biso   1.000  C
  C626     1.0000 0.06089  0.15998  0.18752  Biso   1.000  C
  C627     1.0000 0.49398  0.16300  0.15911  Biso   1.000  C
  C628     1.0000 0.32896  0.25096  0.15511  Biso   1.000  C
  C629     1.0000 0.15297  0.20002  0.17321  Biso   1.000  C
  C630     1.0000 0.32896  0.25105  0.15511  Biso   1.000  C
  C631     1.0000 0.41998  0.72100  0.94959  Biso   1.000  C
  C632     1.0000 0.48597  0.58100  0.93978  Biso   1.000  C
  C633     1.0000 0.41999  0.72100  0.94962  Biso   1.000  C
  C634     1.0000 0.48597  0.58100  0.93982  Biso   1.000  C
  C635     1.0000 0.35796  0.78899  0.93900  Biso   1.000  C
  C636     1.0000 0.35797  0.78899  0.93903  Biso   1.000  C
  C637     1.0000 0.14194  0.25399  0.16419  Biso   1.000  C
  C638     1.0000 0.14195  0.25399  0.16422  Biso   1.000  C
  C639     1.0000 0.16201  0.31400  0.15290  Biso   1.000  C
  C640     1.0000 0.16187  0.31400  0.15290  Biso   1.000  C
  C641     1.0000 0.96500  0.16703  0.19231  Biso   1.000  C
  C642     1.0000 0.30294  0.63900  0.91951  Biso   1.000  C
  C643     1.0000 0.36099  0.85496  0.95719  Biso   1.000  C
  C644     1.0000 0.36100  0.85496  0.95722  Biso   1.000  C
  C645     1.0000 0.36099  0.85505  0.95719  Biso   1.000  C
  C646     1.0000 0.36100  0.85505  0.95722  Biso   1.000  C
  C647     1.0000 0.35300  0.50696  0.91832  Biso   1.000  C
  C648     1.0000 0.34995  0.53500  0.90911  Biso   1.000  C
  C649     1.0000 0.20799  0.74601  0.90901  Biso   1.000  C
  Si54     1.0000 0.98696  0.40920  0.14291  Biso   1.000  Si
  Si55     1.0000 0.98683  0.40920  0.14291  Biso   1.000  Si
  C650     1.0000 0.16296  0.67995  0.89830  Biso   1.000  C
  C651     1.0000 0.21397  0.61701  0.89470  Biso   1.000  C
  C652     1.0000 0.16297  0.67995  0.89833  Biso   1.000  C
  C653     1.0000 0.16296  0.68004  0.89830  Biso   1.000  C
  C654     1.0000 0.16297  0.68004  0.89833  Biso   1.000  C
  C655     1.0000 0.83704  0.32005  0.10170  Biso   1.000  C
  C656     1.0000 0.78603  0.38299  0.10530  Biso   1.000  C
  C657     1.0000 0.87101  0.47297  0.18991  Biso   1.000  C
  C658     1.0000 0.78604  0.38299  0.10533  Biso   1.000  C
  C659     1.0000 0.87101  0.47306  0.18991  Biso   1.000  C
  C660     1.0000 0.83690  0.32005  0.10170  Biso   1.000  C
  C661     1.0000 0.78590  0.38299  0.10533  Biso   1.000  C
  C662     1.0000 0.11896  0.54004  0.11911  Biso   1.000  C
  Si56     1.0000 0.01304  0.59080  0.85709  Biso   1.000  Si
  Si57     1.0000 0.01305  0.59080  0.85712  Biso   1.000  Si
  C663     1.0000 0.69706  0.36100  0.08049  Biso   1.000  C
  C664     1.0000 0.69693  0.36100  0.08052  Biso   1.000  C
  C665     1.0000 0.69692  0.36100  0.08049  Biso   1.000  C
  C666     1.0000 0.79201  0.25399  0.09099  Biso   1.000  C
  C667     1.0000 0.64700  0.49304  0.08168  Biso   1.000  C
  C668     1.0000 0.65005  0.46500  0.09089  Biso   1.000  C
  C669     1.0000 0.79202  0.25399  0.09102  Biso   1.000  C
  C670     1.0000 0.64701  0.49304  0.08172  Biso   1.000  C
  C671     1.0000 0.64992  0.46500  0.09092  Biso   1.000  C
  C672     1.0000 0.79189  0.25399  0.09102  Biso   1.000  C
  C673     1.0000 0.85806  0.74601  0.83581  Biso   1.000  C
  C674     1.0000 0.83799  0.68600  0.84710  Biso   1.000  C
  C675     1.0000 0.88104  0.45996  0.88089  Biso   1.000  C
  C676     1.0000 0.85792  0.74601  0.83581  Biso   1.000  C
  C677     1.0000 0.83800  0.68600  0.84713  Biso   1.000  C
  C678     1.0000 0.88091  0.45996  0.88092  Biso   1.000  C
  C679     1.0000 0.88104  0.46005  0.88089  Biso   1.000  C
  C680     1.0000 0.88091  0.46005  0.88092  Biso   1.000  C
  C681     1.0000 0.12899  0.52703  0.81009  Biso   1.000  C
  C682     1.0000 0.12900  0.52703  0.81012  Biso   1.000  C
  C683     1.0000 0.58002  0.27900  0.05041  Biso   1.000  C
  C684     1.0000 0.51403  0.41900  0.06022  Biso   1.000  C
  C685     1.0000 0.51390  0.41900  0.06022  Biso   1.000  C
  C686     1.0000 0.64204  0.21101  0.06100  Biso   1.000  C
  C687     1.0000 0.64190  0.21101  0.06100  Biso   1.000  C
  C688     1.0000 0.93898  0.84002  0.81251  Biso   1.000  C
  C689     1.0000 0.67104  0.74904  0.84489  Biso   1.000  C
  C690     1.0000 0.67105  0.74904  0.84492  Biso   1.000  C
  C691     1.0000 0.67091  0.74904  0.84492  Biso   1.000  C
  C692     1.0000 0.84703  0.79998  0.82679  Biso   1.000  C
  C693     1.0000 0.84704  0.79998  0.82683  Biso   1.000  C
  C694     1.0000 0.84690  0.79998  0.82683  Biso   1.000  C
  C695     1.0000 0.42197  0.32399  0.03030  Biso   1.000  C
  C696     1.0000 0.63901  0.14504  0.04281  Biso   1.000  C
  C697     1.0000 0.42198  0.32399  0.03033  Biso   1.000  C
  C698     1.0000 0.49999  0.29403  0.04590  Biso   1.000  C
  C699     1.0000 0.82505  0.95098  0.80189  Biso   1.000  C
  C700     1.0000 0.82493  0.95098  0.80192  Biso   1.000  C
  C701     1.0000 0.82492  0.95098  0.80189  Biso   1.000  C
  C702     1.0000 0.68399  0.88299  0.82541  Biso   1.000  C
  C703     1.0000 0.56504  0.85596  0.83341  Biso   1.000  C
  C704     1.0000 0.50602  0.83700  0.84089  Biso   1.000  C
  C705     1.0000 0.50603  0.83700  0.84092  Biso   1.000  C
  C706     1.0000 0.56504  0.85606  0.83341  Biso   1.000  C
  C707     1.0000 0.56490  0.85596  0.83341  Biso   1.000  C
  C708     1.0000 0.56490  0.85606  0.83341  Biso   1.000  C
  C709     1.0000 0.03500  0.83297  0.80769  Biso   1.000  C
  C710     1.0000 0.03501  0.83297  0.80772  Biso   1.000  C
  C711     1.0000 0.03500  0.83306  0.80769  Biso   1.000  C
  C712     1.0000 0.03501  0.83306  0.80772  Biso   1.000  C
  Si58     1.0000 0.27729  0.23548  0.00410  Biso   1.000  Si
  Si59     1.0000 0.27730  0.23548  0.00413  Biso   1.000  Si
  C713     1.0000 0.63996  0.95804  0.81150  Biso   1.000  C
  C714     1.0000 0.71106  0.00302  0.80911  Biso   1.000  C
  C715     1.0000 0.71092  0.00302  0.80911  Biso   1.000  C
  C716     1.0000 0.32897  0.19397  0.94240  Biso   1.000  C
  C717     1.0000 0.41099  0.20597  0.96100  Biso   1.000  C
  C718     1.0000 0.06898  0.34103  0.99590  Biso   1.000  C
  C719     1.0000 0.32897  0.19406  0.94240  Biso   1.000  C
  C720     1.0000 0.41099  0.20607  0.96100  Biso   1.000  C
  C721     1.0000 0.20201  0.09199  0.03140  Biso   1.000  C
  Si60     1.0000 0.51010  0.10574  0.80280  Biso   1.000  Si
  C722     1.0000 0.19207  0.14999  0.91100  Biso   1.000  C
  C723     1.0000 0.51297  0.21101  0.93370  Biso   1.000  C
  C724     1.0000 0.12705  0.14303  0.91989  Biso   1.000  C
  C725     1.0000 0.19193  0.14999  0.91100  Biso   1.000  C
  C726     1.0000 0.12706  0.14303  0.91992  Biso   1.000  C
  C727     1.0000 0.12692  0.14303  0.91992  Biso   1.000  C
  C728     1.0000 0.33199  0.16804  0.92251  Biso   1.000  C
  C729     1.0000 0.43206  0.14697  0.85949  Biso   1.000  C
  C730     1.0000 0.36097  0.12699  0.84669  Biso   1.000  C
  C731     1.0000 0.43193  0.14697  0.85952  Biso   1.000  C
  C732     1.0000 0.36098  0.12699  0.84672  Biso   1.000  C
  C733     1.0000 0.43206  0.14706  0.85949  Biso   1.000  C
  C734     1.0000 0.43193  0.14706  0.85952  Biso   1.000  C
  C735     1.0000 0.43192  0.14697  0.85949  Biso   1.000  C
  C736     1.0000 0.43192  0.14706  0.85949  Biso   1.000  C
  C737     1.0000 0.63498  0.24702  0.78461  Biso   1.000  C
  C738     1.0000 0.32405  0.06597  0.76150  Biso   1.000  C
  C739     1.0000 0.32405  0.06606  0.76150  Biso   1.000  C
  C740     1.0000 0.32391  0.06597  0.76150  Biso   1.000  C
  C741     1.0000 0.32391  0.06606  0.76150  Biso   1.000  C
  C742     1.0000 0.25397  0.13203  0.86980  Biso   1.000  C
  C743     1.0000 0.25398  0.13203  0.86983  Biso   1.000  C
  C744     1.0000 0.58300  0.19003  0.89379  Biso   1.000  C
  C745     1.0000 0.45807  0.15604  0.88610  Biso   1.000  C
  C746     1.0000 0.58301  0.19003  0.89382  Biso   1.000  C
  C747     1.0000 0.45794  0.15604  0.88613  Biso   1.000  C
  C748     1.0000 0.45793  0.15604  0.88610  Biso   1.000  C
  C749     1.0000 0.67007  0.15897  0.89290  Biso   1.000  C
  C750     1.0000 0.66993  0.15897  0.89290  Biso   1.000  C
  C751     1.0000 0.67007  0.15906  0.89290  Biso   1.000  C
  C752     1.0000 0.66993  0.15906  0.89290  Biso   1.000  C
  C753     1.0000 0.32993  0.84103  0.10710  Biso   1.000  C
  C754     1.0000 0.54193  0.84396  0.11390  Biso   1.000  C
  C755     1.0000 0.54193  0.84405  0.11390  Biso   1.000  C
  C756     1.0000 0.74603  0.86797  0.13020  Biso   1.000  C
  C757     1.0000 0.41700  0.80997  0.10621  Biso   1.000  C
  C758     1.0000 0.74589  0.86797  0.13020  Biso   1.000  C
  C759     1.0000 0.74603  0.86806  0.13020  Biso   1.000  C
  C760     1.0000 0.41700  0.81006  0.10621  Biso   1.000  C
  C761     1.0000 0.74589  0.86806  0.13020  Biso   1.000  C
  C762     1.0000 0.63890  0.87301  0.15331  Biso   1.000  C
  C763     1.0000 0.63903  0.87301  0.15331  Biso   1.000  C
  C764     1.0000 0.48690  0.78899  0.06630  Biso   1.000  C
  C765     1.0000 0.48703  0.78899  0.06630  Biso   1.000  C
  C766     1.0000 0.66801  0.83196  0.07749  Biso   1.000  C
  C767     1.0000 0.66801  0.83196  0.07752  Biso   1.000  C
  C768     1.0000 0.66801  0.83205  0.07749  Biso   1.000  C
  C769     1.0000 0.66801  0.83205  0.07752  Biso   1.000  C
  C770     1.0000 0.66788  0.83196  0.07752  Biso   1.000  C
  C771     1.0000 0.66788  0.83205  0.07752  Biso   1.000  C
  C772     1.0000 0.32994  0.84103  0.10713  Biso   1.000  C
  C773     1.0000 0.56794  0.85303  0.14051  Biso   1.000  C
  C774     1.0000 0.80793  0.85001  0.08900  Biso   1.000  C
  C775     1.0000 0.80794  0.85001  0.08903  Biso   1.000  C
  Si61     1.0000 0.48990  0.89426  0.19720  Biso   1.000  Si
  Si62     1.0000 0.48991  0.89426  0.19723  Biso   1.000  Si
  Si63     1.0000 0.48990  0.89436  0.19720  Biso   1.000  Si
  Si64     1.0000 0.48991  0.89436  0.19723  Biso   1.000  Si
  Si65     1.0000 0.48977  0.89426  0.19723  Biso   1.000  Si
  Si66     1.0000 0.48977  0.89436  0.19723  Biso   1.000  Si
  C776     1.0000 0.67103  0.80603  0.05760  Biso   1.000  C
  C777     1.0000 0.67090  0.80603  0.05763  Biso   1.000  C
  C778     1.0000 0.67089  0.80603  0.05760  Biso   1.000  C
  C779     1.0000 0.58901  0.79403  0.03900  Biso   1.000  C
  C780     1.0000 0.58902  0.79403  0.03903  Biso   1.000  C
  C781     1.0000 0.58889  0.79403  0.03903  Biso   1.000  C
  C782     1.0000 0.87295  0.85697  0.08011  Biso   1.000  C
  C783     1.0000 0.28894  0.99698  0.19089  Biso   1.000  C
  C784     1.0000 0.36502  0.75298  0.21539  Biso   1.000  C
  C785     1.0000 0.67595  0.93403  0.23850  Biso   1.000  C
  C786     1.0000 0.28895  0.99698  0.19092  Biso   1.000  C
  C787     1.0000 0.36503  0.75298  0.21542  Biso   1.000  C
  C788     1.0000 0.67596  0.93403  0.23853  Biso   1.000  C
  C789     1.0000 0.36489  0.75298  0.21542  Biso   1.000  C
  C790     1.0000 0.36004  0.04196  0.18850  Biso   1.000  C
  C791     1.0000 0.35992  0.04196  0.18853  Biso   1.000  C
  C792     1.0000 0.36004  0.04206  0.18850  Biso   1.000  C
  C793     1.0000 0.35992  0.04206  0.18853  Biso   1.000  C
  C794     1.0000 0.35991  0.04196  0.18850  Biso   1.000  C
  C795     1.0000 0.35991  0.04206  0.18850  Biso   1.000  C
  Si67     1.0000 0.72271  0.76452  0.99590  Biso   1.000  Si
  Si68     1.0000 0.72257  0.76452  0.99590  Biso   1.000  Si
  C796     1.0000 0.17495  0.04902  0.19811  Biso   1.000  C
  C797     1.0000 0.31601  0.11701  0.17459  Biso   1.000  C
  C798     1.0000 0.31602  0.11701  0.17462  Biso   1.000  C
  C799     1.0000 0.31589  0.11701  0.17462  Biso   1.000  C
  C800     1.0000 0.43496  0.14404  0.16659  Biso   1.000  C
  C801     1.0000 0.43497  0.14404  0.16662  Biso   1.000  C
  C802     1.0000 0.57803  0.67601  0.96970  Biso   1.000  C
  C803     1.0000 0.50001  0.70597  0.95410  Biso   1.000  C
  C804     1.0000 0.79799  0.90801  0.96860  Biso   1.000  C
  C805     1.0000 0.57790  0.67601  0.96970  Biso   1.000  C
  C806     1.0000 0.50002  0.70597  0.95413  Biso   1.000  C
  C807     1.0000 0.49988  0.70597  0.95413  Biso   1.000  C
  C808     1.0000 0.79785  0.90801  0.96860  Biso   1.000  C
  C809     1.0000 0.93102  0.65897  0.00410  Biso   1.000  C
  C810     1.0000 0.93089  0.65897  0.00413  Biso   1.000  C
  C811     1.0000 0.93088  0.65897  0.00410  Biso   1.000  C
  C812     1.0000 0.06102  0.15998  0.18749  Biso   1.000  C
  C813     1.0000 0.06103  0.15998  0.18752  Biso   1.000  C
  C814     1.0000 0.06089  0.15998  0.18752  Biso   1.000  C
  C815     1.0000 0.49398  0.16300  0.15911  Biso   1.000  C
  C816     1.0000 0.32896  0.25096  0.15511  Biso   1.000  C
  C817     1.0000 0.15297  0.20002  0.17321  Biso   1.000  C
  C818     1.0000 0.32896  0.25105  0.15511  Biso   1.000  C
  C819     1.0000 0.41998  0.72100  0.94959  Biso   1.000  C
  C820     1.0000 0.48597  0.58100  0.93978  Biso   1.000  C
  C821     1.0000 0.41999  0.72100  0.94962  Biso   1.000  C
  C822     1.0000 0.48597  0.58100  0.93982  Biso   1.000  C
  C823     1.0000 0.35796  0.78899  0.93900  Biso   1.000  C
  C824     1.0000 0.35797  0.78899  0.93903  Biso   1.000  C
  C825     1.0000 0.14194  0.25399  0.16419  Biso   1.000  C
  C826     1.0000 0.14195  0.25399  0.16422  Biso   1.000  C
  C827     1.0000 0.16201  0.31400  0.15290  Biso   1.000  C
  C828     1.0000 0.16187  0.31400  0.15290  Biso   1.000  C
  C829     1.0000 0.96500  0.16703  0.19231  Biso   1.000  C
  C830     1.0000 0.30294  0.63900  0.91951  Biso   1.000  C
  C831     1.0000 0.36099  0.85496  0.95719  Biso   1.000  C
  C832     1.0000 0.36100  0.85496  0.95722  Biso   1.000  C
  C833     1.0000 0.36099  0.85505  0.95719  Biso   1.000  C
  C834     1.0000 0.36100  0.85505  0.95722  Biso   1.000  C
  C835     1.0000 0.35300  0.50696  0.91832  Biso   1.000  C
  C836     1.0000 0.34995  0.53500  0.90911  Biso   1.000  C
  C837     1.0000 0.20799  0.74601  0.90901  Biso   1.000  C
  Si69     1.0000 0.98696  0.40920  0.14291  Biso   1.000  Si
  Si70     1.0000 0.98683  0.40920  0.14291  Biso   1.000  Si
  C838     1.0000 0.16296  0.67995  0.89830  Biso   1.000  C
  C839     1.0000 0.21397  0.61701  0.89470  Biso   1.000  C
  C840     1.0000 0.16297  0.67995  0.89833  Biso   1.000  C
  C841     1.0000 0.16296  0.68004  0.89830  Biso   1.000  C
  C842     1.0000 0.16297  0.68004  0.89833  Biso   1.000  C
  C843     1.0000 0.83704  0.32005  0.10170  Biso   1.000  C
  C844     1.0000 0.78603  0.38299  0.10530  Biso   1.000  C
  C845     1.0000 0.87101  0.47297  0.18991  Biso   1.000  C
  C846     1.0000 0.78604  0.38299  0.10533  Biso   1.000  C
  C847     1.0000 0.87101  0.47306  0.18991  Biso   1.000  C
  C848     1.0000 0.83690  0.32005  0.10170  Biso   1.000  C
  C849     1.0000 0.78590  0.38299  0.10533  Biso   1.000  C
  C850     1.0000 0.11896  0.54004  0.11911  Biso   1.000  C
  Si71     1.0000 0.01304  0.59080  0.85709  Biso   1.000  Si
  Si72     1.0000 0.01305  0.59080  0.85712  Biso   1.000  Si
  C851     1.0000 0.69706  0.36100  0.08049  Biso   1.000  C
  C852     1.0000 0.69693  0.36100  0.08052  Biso   1.000  C
  C853     1.0000 0.69692  0.36100  0.08049  Biso   1.000  C
  C854     1.0000 0.79201  0.25399  0.09099  Biso   1.000  C
  C855     1.0000 0.64700  0.49304  0.08168  Biso   1.000  C
  C856     1.0000 0.65005  0.46500  0.09089  Biso   1.000  C
  C857     1.0000 0.79202  0.25399  0.09102  Biso   1.000  C
  C858     1.0000 0.64701  0.49304  0.08172  Biso   1.000  C
  C859     1.0000 0.64992  0.46500  0.09092  Biso   1.000  C
  C860     1.0000 0.79189  0.25399  0.09102  Biso   1.000  C
  C861     1.0000 0.85806  0.74601  0.83581  Biso   1.000  C
  C862     1.0000 0.83799  0.68600  0.84710  Biso   1.000  C
  C863     1.0000 0.88104  0.45996  0.88089  Biso   1.000  C
  C864     1.0000 0.85792  0.74601  0.83581  Biso   1.000  C
  C865     1.0000 0.83800  0.68600  0.84713  Biso   1.000  C
  C866     1.0000 0.88091  0.45996  0.88092  Biso   1.000  C
  C867     1.0000 0.88104  0.46005  0.88089  Biso   1.000  C
  C868     1.0000 0.88091  0.46005  0.88092  Biso   1.000  C
  C869     1.0000 0.12899  0.52703  0.81009  Biso   1.000  C
  C870     1.0000 0.12900  0.52703  0.81012  Biso   1.000  C
  C871     1.0000 0.58002  0.27900  0.05041  Biso   1.000  C
  C872     1.0000 0.51403  0.41900  0.06022  Biso   1.000  C
  C873     1.0000 0.51390  0.41900  0.06022  Biso   1.000  C
  C874     1.0000 0.64204  0.21101  0.06100  Biso   1.000  C
  C875     1.0000 0.64190  0.21101  0.06100  Biso   1.000  C
  C876     1.0000 0.93898  0.84002  0.81251  Biso   1.000  C
  C877     1.0000 0.67104  0.74904  0.84489  Biso   1.000  C
  C878     1.0000 0.67105  0.74904  0.84492  Biso   1.000  C
  C879     1.0000 0.67091  0.74904  0.84492  Biso   1.000  C
  C880     1.0000 0.84703  0.79998  0.82679  Biso   1.000  C
  C881     1.0000 0.84704  0.79998  0.82683  Biso   1.000  C
  C882     1.0000 0.84690  0.79998  0.82683  Biso   1.000  C
  C883     1.0000 0.42197  0.32399  0.03030  Biso   1.000  C
  C884     1.0000 0.63901  0.14504  0.04281  Biso   1.000  C
  C885     1.0000 0.42198  0.32399  0.03033  Biso   1.000  C
  C886     1.0000 0.49999  0.29403  0.04590  Biso   1.000  C
  C887     1.0000 0.82505  0.95098  0.80189  Biso   1.000  C
  C888     1.0000 0.82493  0.95098  0.80192  Biso   1.000  C
  C889     1.0000 0.82492  0.95098  0.80189  Biso   1.000  C
  C890     1.0000 0.68399  0.88299  0.82541  Biso   1.000  C
  C891     1.0000 0.56504  0.85596  0.83341  Biso   1.000  C
  C892     1.0000 0.50602  0.83700  0.84089  Biso   1.000  C
  C893     1.0000 0.50603  0.83700  0.84092  Biso   1.000  C
  C894     1.0000 0.56504  0.85606  0.83341  Biso   1.000  C
  C895     1.0000 0.56490  0.85596  0.83341  Biso   1.000  C
  C896     1.0000 0.56490  0.85606  0.83341  Biso   1.000  C
  C897     1.0000 0.03500  0.83297  0.80769  Biso   1.000  C
  C898     1.0000 0.03501  0.83297  0.80772  Biso   1.000  C
  C899     1.0000 0.03500  0.83306  0.80769  Biso   1.000  C
  C900     1.0000 0.03501  0.83306  0.80772  Biso   1.000  C
  Si73     1.0000 0.27729  0.23548  0.00410  Biso   1.000  Si
  Si74     1.0000 0.27730  0.23548  0.00413  Biso   1.000  Si
  C901     1.0000 0.63996  0.95804  0.81150  Biso   1.000  C
  C902     1.0000 0.71106  0.00302  0.80911  Biso   1.000  C
  C903     1.0000 0.71092  0.00302  0.80911  Biso   1.000  C
  C904     1.0000 0.32897  0.19397  0.94240  Biso   1.000  C
  C905     1.0000 0.41099  0.20597  0.96100  Biso   1.000  C
  C906     1.0000 0.06898  0.34103  0.99590  Biso   1.000  C
  C907     1.0000 0.32897  0.19406  0.94240  Biso   1.000  C
  C908     1.0000 0.41099  0.20607  0.96100  Biso   1.000  C
  C909     1.0000 0.20201  0.09199  0.03140  Biso   1.000  C
  Si75     1.0000 0.51010  0.10574  0.80280  Biso   1.000  Si
  C910     1.0000 0.19207  0.14999  0.91100  Biso   1.000  C
  C911     1.0000 0.51297  0.21101  0.93370  Biso   1.000  C
  C912     1.0000 0.12705  0.14303  0.91989  Biso   1.000  C
  C913     1.0000 0.19193  0.14999  0.91100  Biso   1.000  C
  C914     1.0000 0.12706  0.14303  0.91992  Biso   1.000  C
  C915     1.0000 0.12692  0.14303  0.91992  Biso   1.000  C
  C916     1.0000 0.33199  0.16804  0.92251  Biso   1.000  C
  C917     1.0000 0.43206  0.14697  0.85949  Biso   1.000  C
  C918     1.0000 0.36097  0.12699  0.84669  Biso   1.000  C
  C919     1.0000 0.43193  0.14697  0.85952  Biso   1.000  C
  C920     1.0000 0.36098  0.12699  0.84672  Biso   1.000  C
  C921     1.0000 0.43206  0.14706  0.85949  Biso   1.000  C
  C922     1.0000 0.43193  0.14706  0.85952  Biso   1.000  C
  C923     1.0000 0.43192  0.14697  0.85949  Biso   1.000  C
  C924     1.0000 0.43192  0.14706  0.85949  Biso   1.000  C
  C925     1.0000 0.63498  0.24702  0.78461  Biso   1.000  C
  C926     1.0000 0.32405  0.06597  0.76150  Biso   1.000  C
  C927     1.0000 0.32405  0.06606  0.76150  Biso   1.000  C
  C928     1.0000 0.32391  0.06597  0.76150  Biso   1.000  C
  C929     1.0000 0.32391  0.06606  0.76150  Biso   1.000  C
  C930     1.0000 0.25397  0.13203  0.86980  Biso   1.000  C
  C931     1.0000 0.25398  0.13203  0.86983  Biso   1.000  C
  C932     1.0000 0.58300  0.19003  0.89379  Biso   1.000  C
  C933     1.0000 0.45807  0.15604  0.88610  Biso   1.000  C
  C934     1.0000 0.58301  0.19003  0.89382  Biso   1.000  C
  C935     1.0000 0.45794  0.15604  0.88613  Biso   1.000  C
  C936     1.0000 0.45793  0.15604  0.88610  Biso   1.000  C
  C937     1.0000 0.67007  0.15897  0.89290  Biso   1.000  C
  C938     1.0000 0.66993  0.15897  0.89290  Biso   1.000  C
  C939     1.0000 0.67007  0.15906  0.89290  Biso   1.000  C
  C940     1.0000 0.66993  0.15906  0.89290  Biso   1.000  C
  C941     1.0000 0.32993  0.84103  0.10710  Biso   1.000  C
  C942     1.0000 0.54193  0.84396  0.11390  Biso   1.000  C
  C943     1.0000 0.54193  0.84405  0.11390  Biso   1.000  C
  C944     1.0000 0.74603  0.86797  0.13020  Biso   1.000  C
  C945     1.0000 0.41700  0.80997  0.10621  Biso   1.000  C
  C946     1.0000 0.74589  0.86797  0.13020  Biso   1.000  C
  C947     1.0000 0.74603  0.86806  0.13020  Biso   1.000  C
  C948     1.0000 0.41700  0.81006  0.10621  Biso   1.000  C
  C949     1.0000 0.74589  0.86806  0.13020  Biso   1.000  C
  C950     1.0000 0.63890  0.87301  0.15331  Biso   1.000  C
  C951     1.0000 0.63903  0.87301  0.15331  Biso   1.000  C
  C952     1.0000 0.48690  0.78899  0.06630  Biso   1.000  C
  C953     1.0000 0.48703  0.78899  0.06630  Biso   1.000  C
  C954     1.0000 0.66801  0.83196  0.07749  Biso   1.000  C
  C955     1.0000 0.66801  0.83196  0.07752  Biso   1.000  C
  C956     1.0000 0.66801  0.83205  0.07749  Biso   1.000  C
  C957     1.0000 0.66801  0.83205  0.07752  Biso   1.000  C
  C958     1.0000 0.66788  0.83196  0.07752  Biso   1.000  C
  C959     1.0000 0.66788  0.83205  0.07752  Biso   1.000  C
  C960     1.0000 0.32994  0.84103  0.10713  Biso   1.000  C
  C961     1.0000 0.56794  0.85303  0.14051  Biso   1.000  C
  C962     1.0000 0.80793  0.85001  0.08900  Biso   1.000  C
  C963     1.0000 0.80794  0.85001  0.08903  Biso   1.000  C
  Si76     1.0000 0.48990  0.89426  0.19720  Biso   1.000  Si
  Si77     1.0000 0.48991  0.89426  0.19723  Biso   1.000  Si
  Si78     1.0000 0.48990  0.89436  0.19720  Biso   1.000  Si
  Si79     1.0000 0.48991  0.89436  0.19723  Biso   1.000  Si
  Si80     1.0000 0.48977  0.89426  0.19723  Biso   1.000  Si
  Si81     1.0000 0.48977  0.89436  0.19723  Biso   1.000  Si
  C964     1.0000 0.67103  0.80603  0.05760  Biso   1.000  C
  C965     1.0000 0.67090  0.80603  0.05763  Biso   1.000  C
  C966     1.0000 0.67089  0.80603  0.05760  Biso   1.000  C
  C967     1.0000 0.58901  0.79403  0.03900  Biso   1.000  C
  C968     1.0000 0.58902  0.79403  0.03903  Biso   1.000  C
  C969     1.0000 0.58889  0.79403  0.03903  Biso   1.000  C
  C970     1.0000 0.87295  0.85697  0.08011  Biso   1.000  C
  C971     1.0000 0.28894  0.99698  0.19089  Biso   1.000  C
  C972     1.0000 0.36502  0.75298  0.21539  Biso   1.000  C
  C973     1.0000 0.67595  0.93403  0.23850  Biso   1.000  C
  C974     1.0000 0.28895  0.99698  0.19092  Biso   1.000  C
  C975     1.0000 0.36503  0.75298  0.21542  Biso   1.000  C
  C976     1.0000 0.67596  0.93403  0.23853  Biso   1.000  C
  C977     1.0000 0.36489  0.75298  0.21542  Biso   1.000  C
  C978     1.0000 0.36004  0.04196  0.18850  Biso   1.000  C
  C979     1.0000 0.35992  0.04196  0.18853  Biso   1.000  C
  C980     1.0000 0.36004  0.04206  0.18850  Biso   1.000  C
  C981     1.0000 0.35992  0.04206  0.18853  Biso   1.000  C
  C982     1.0000 0.35991  0.04196  0.18850  Biso   1.000  C
  C983     1.0000 0.35991  0.04206  0.18850  Biso   1.000  C
  Si82     1.0000 0.72271  0.76452  0.99590  Biso   1.000  Si
  Si83     1.0000 0.72257  0.76452  0.99590  Biso   1.000  Si
  C984     1.0000 0.17495  0.04902  0.19811  Biso   1.000  C
  C985     1.0000 0.31601  0.11701  0.17459  Biso   1.000  C
  C986     1.0000 0.31602  0.11701  0.17462  Biso   1.000  C
  C987     1.0000 0.31589  0.11701  0.17462  Biso   1.000  C
  C988     1.0000 0.43496  0.14404  0.16659  Biso   1.000  C
  C989     1.0000 0.43497  0.14404  0.16662  Biso   1.000  C
  C990     1.0000 0.57803  0.67601  0.96970  Biso   1.000  C
  C991     1.0000 0.50001  0.70597  0.95410  Biso   1.000  C
  C992     1.0000 0.79799  0.90801  0.96860  Biso   1.000  C
  C993     1.0000 0.57790  0.67601  0.96970  Biso   1.000  C
  C994     1.0000 0.50002  0.70597  0.95413  Biso   1.000  C
  C995     1.0000 0.49988  0.70597  0.95413  Biso   1.000  C
  C996     1.0000 0.79785  0.90801  0.96860  Biso   1.000  C
  C997     1.0000 0.93102  0.65897  0.00410  Biso   1.000  C
  C998     1.0000 0.93089  0.65897  0.00413  Biso   1.000  C
  C999     1.0000 0.93088  0.65897  0.00410  Biso   1.000  C
  C1000    1.0000 0.06102  0.15998  0.18749  Biso   1.000  C
  C1001    1.0000 0.06103  0.15998  0.18752  Biso   1.000  C
  C1002    1.0000 0.06089  0.15998  0.18752  Biso   1.000  C
  C1003    1.0000 0.49398  0.16300  0.15911  Biso   1.000  C
  C1004    1.0000 0.32896  0.25096  0.15511  Biso   1.000  C
  C1005    1.0000 0.15297  0.20002  0.17321  Biso   1.000  C
  C1006    1.0000 0.32896  0.25105  0.15511  Biso   1.000  C
  C1007    1.0000 0.41998  0.72100  0.94959  Biso   1.000  C
  C1008    1.0000 0.48597  0.58100  0.93978  Biso   1.000  C
  C1009    1.0000 0.41999  0.72100  0.94962  Biso   1.000  C
  C1010    1.0000 0.48597  0.58100  0.93982  Biso   1.000  C
  C1011    1.0000 0.35796  0.78899  0.93900  Biso   1.000  C
  C1012    1.0000 0.35797  0.78899  0.93903  Biso   1.000  C
  C1013    1.0000 0.14194  0.25399  0.16419  Biso   1.000  C
  C1014    1.0000 0.14195  0.25399  0.16422  Biso   1.000  C
  C1015    1.0000 0.16201  0.31400  0.15290  Biso   1.000  C
  C1016    1.0000 0.16187  0.31400  0.15290  Biso   1.000  C
  C1017    1.0000 0.96500  0.16703  0.19231  Biso   1.000  C
  C1018    1.0000 0.30294  0.63900  0.91951  Biso   1.000  C
  C1019    1.0000 0.36099  0.85496  0.95719  Biso   1.000  C
  C1020    1.0000 0.36100  0.85496  0.95722  Biso   1.000  C
  C1021    1.0000 0.36099  0.85505  0.95719  Biso   1.000  C
  C1022    1.0000 0.36100  0.85505  0.95722  Biso   1.000  C
  C1023    1.0000 0.35300  0.50696  0.91832  Biso   1.000  C
  C1024    1.0000 0.34995  0.53500  0.90911  Biso   1.000  C
  C1025    1.0000 0.20799  0.74601  0.90901  Biso   1.000  C
  Si84     1.0000 0.98696  0.40920  0.14291  Biso   1.000  Si
  Si85     1.0000 0.98683  0.40920  0.14291  Biso   1.000  Si
  C1026    1.0000 0.16296  0.67995  0.89830  Biso   1.000  C
  C1027    1.0000 0.21397  0.61701  0.89470  Biso   1.000  C
  C1028    1.0000 0.16297  0.67995  0.89833  Biso   1.000  C
  C1029    1.0000 0.16296  0.68004  0.89830  Biso   1.000  C
  C1030    1.0000 0.16297  0.68004  0.89833  Biso   1.000  C
  C1031    1.0000 0.83704  0.32005  0.10170  Biso   1.000  C
  C1032    1.0000 0.78603  0.38299  0.10530  Biso   1.000  C
  C1033    1.0000 0.87101  0.47297  0.18991  Biso   1.000  C
  C1034    1.0000 0.78604  0.38299  0.10533  Biso   1.000  C
  C1035    1.0000 0.87101  0.47306  0.18991  Biso   1.000  C
  C1036    1.0000 0.83690  0.32005  0.10170  Biso   1.000  C
  C1037    1.0000 0.78590  0.38299  0.10533  Biso   1.000  C
  C1038    1.0000 0.11896  0.54004  0.11911  Biso   1.000  C
  Si86     1.0000 0.01304  0.59080  0.85709  Biso   1.000  Si
  Si87     1.0000 0.01305  0.59080  0.85712  Biso   1.000  Si
  C1039    1.0000 0.69706  0.36100  0.08049  Biso   1.000  C
  C1040    1.0000 0.69693  0.36100  0.08052  Biso   1.000  C
  C1041    1.0000 0.69692  0.36100  0.08049  Biso   1.000  C
  C1042    1.0000 0.79201  0.25399  0.09099  Biso   1.000  C
  C1043    1.0000 0.64700  0.49304  0.08168  Biso   1.000  C
  C1044    1.0000 0.65005  0.46500  0.09089  Biso   1.000  C
  C1045    1.0000 0.79202  0.25399  0.09102  Biso   1.000  C
  C1046    1.0000 0.64701  0.49304  0.08172  Biso   1.000  C
  C1047    1.0000 0.64992  0.46500  0.09092  Biso   1.000  C
  C1048    1.0000 0.79189  0.25399  0.09102  Biso   1.000  C
  C1049    1.0000 0.85806  0.74601  0.83581  Biso   1.000  C
  C1050    1.0000 0.83799  0.68600  0.84710  Biso   1.000  C
  C1051    1.0000 0.88104  0.45996  0.88089  Biso   1.000  C
  C1052    1.0000 0.85792  0.74601  0.83581  Biso   1.000  C
  C1053    1.0000 0.83800  0.68600  0.84713  Biso   1.000  C
  C1054    1.0000 0.88091  0.45996  0.88092  Biso   1.000  C
  C1055    1.0000 0.88104  0.46005  0.88089  Biso   1.000  C
  C1056    1.0000 0.88091  0.46005  0.88092  Biso   1.000  C
  C1057    1.0000 0.12899  0.52703  0.81009  Biso   1.000  C
  C1058    1.0000 0.12900  0.52703  0.81012  Biso   1.000  C
  C1059    1.0000 0.58002  0.27900  0.05041  Biso   1.000  C
  C1060    1.0000 0.51403  0.41900  0.06022  Biso   1.000  C
  C1061    1.0000 0.51390  0.41900  0.06022  Biso   1.000  C
  C1062    1.0000 0.64204  0.21101  0.06100  Biso   1.000  C
  C1063    1.0000 0.64190  0.21101  0.06100  Biso   1.000  C
  C1064    1.0000 0.93898  0.84002  0.81251  Biso   1.000  C
  C1065    1.0000 0.67104  0.74904  0.84489  Biso   1.000  C
  C1066    1.0000 0.67105  0.74904  0.84492  Biso   1.000  C
  C1067    1.0000 0.67091  0.74904  0.84492  Biso   1.000  C
  C1068    1.0000 0.84703  0.79998  0.82679  Biso   1.000  C
  C1069    1.0000 0.84704  0.79998  0.82683  Biso   1.000  C
  C1070    1.0000 0.84690  0.79998  0.82683  Biso   1.000  C
  C1071    1.0000 0.42197  0.32399  0.03030  Biso   1.000  C
  C1072    1.0000 0.63901  0.14504  0.04281  Biso   1.000  C
  C1073    1.0000 0.42198  0.32399  0.03033  Biso   1.000  C
  C1074    1.0000 0.49999  0.29403  0.04590  Biso   1.000  C
  C1075    1.0000 0.82505  0.95098  0.80189  Biso   1.000  C
  C1076    1.0000 0.82493  0.95098  0.80192  Biso   1.000  C
  C1077    1.0000 0.82492  0.95098  0.80189  Biso   1.000  C
  C1078    1.0000 0.68399  0.88299  0.82541  Biso   1.000  C
  C1079    1.0000 0.56504  0.85596  0.83341  Biso   1.000  C
  C1080    1.0000 0.50602  0.83700  0.84089  Biso   1.000  C
  C1081    1.0000 0.50603  0.83700  0.84092  Biso   1.000  C
  C1082    1.0000 0.56504  0.85606  0.83341  Biso   1.000  C
  C1083    1.0000 0.56490  0.85596  0.83341  Biso   1.000  C
  C1084    1.0000 0.56490  0.85606  0.83341  Biso   1.000  C
  C1085    1.0000 0.03500  0.83297  0.80769  Biso   1.000  C
  C1086    1.0000 0.03501  0.83297  0.80772  Biso   1.000  C
  C1087    1.0000 0.03500  0.83306  0.80769  Biso   1.000  C
  C1088    1.0000 0.03501  0.83306  0.80772  Biso   1.000  C
  Si88     1.0000 0.27729  0.23548  0.00410  Biso   1.000  Si
  Si89     1.0000 0.27730  0.23548  0.00413  Biso   1.000  Si
  C1089    1.0000 0.63996  0.95804  0.81150  Biso   1.000  C
  C1090    1.0000 0.71106  0.00302  0.80911  Biso   1.000  C
  C1091    1.0000 0.71092  0.00302  0.80911  Biso   1.000  C
  C1092    1.0000 0.32897  0.19397  0.94240  Biso   1.000  C
  C1093    1.0000 0.41099  0.20597  0.96100  Biso   1.000  C
  C1094    1.0000 0.06898  0.34103  0.99590  Biso   1.000  C
  C1095    1.0000 0.32897  0.19406  0.94240  Biso   1.000  C
  C1096    1.0000 0.41099  0.20607  0.96100  Biso   1.000  C
  C1097    1.0000 0.20201  0.09199  0.03140  Biso   1.000  C
  Si90     1.0000 0.51010  0.10574  0.80280  Biso   1.000  Si
  C1098    1.0000 0.19207  0.14999  0.91100  Biso   1.000  C
  C1099    1.0000 0.51297  0.21101  0.93370  Biso   1.000  C
  C1100    1.0000 0.12705  0.14303  0.91989  Biso   1.000  C
  C1101    1.0000 0.19193  0.14999  0.91100  Biso   1.000  C
  C1102    1.0000 0.12706  0.14303  0.91992  Biso   1.000  C
  C1103    1.0000 0.12692  0.14303  0.91992  Biso   1.000  C
  C1104    1.0000 0.33199  0.16804  0.92251  Biso   1.000  C
  C1105    1.0000 0.43206  0.14697  0.85949  Biso   1.000  C
  C1106    1.0000 0.36097  0.12699  0.84669  Biso   1.000  C
  C1107    1.0000 0.43193  0.14697  0.85952  Biso   1.000  C
  C1108    1.0000 0.36098  0.12699  0.84672  Biso   1.000  C
  C1109    1.0000 0.43206  0.14706  0.85949  Biso   1.000  C
  C1110    1.0000 0.43193  0.14706  0.85952  Biso   1.000  C
  C1111    1.0000 0.43192  0.14697  0.85949  Biso   1.000  C
  C1112    1.0000 0.43192  0.14706  0.85949  Biso   1.000  C
  C1113    1.0000 0.63498  0.24702  0.78461  Biso   1.000  C
  C1114    1.0000 0.32405  0.06597  0.76150  Biso   1.000  C
  C1115    1.0000 0.32405  0.06606  0.76150  Biso   1.000  C
  C1116    1.0000 0.32391  0.06597  0.76150  Biso   1.000  C
  C1117    1.0000 0.32391  0.06606  0.76150  Biso   1.000  C
  C1118    1.0000 0.25397  0.13203  0.86980  Biso   1.000  C
  C1119    1.0000 0.25398  0.13203  0.86983  Biso   1.000  C
  C1120    1.0000 0.58300  0.19003  0.89379  Biso   1.000  C
  C1121    1.0000 0.45807  0.15604  0.88610  Biso   1.000  C
  C1122    1.0000 0.58301  0.19003  0.89382  Biso   1.000  C
  C1123    1.0000 0.45794  0.15604  0.88613  Biso   1.000  C
  C1124    1.0000 0.45793  0.15604  0.88610  Biso   1.000  C
  C1125    1.0000 0.67007  0.15897  0.89290  Biso   1.000  C
  C1126    1.0000 0.66993  0.15897  0.89290  Biso   1.000  C
  C1127    1.0000 0.67007  0.15906  0.89290  Biso   1.000  C
  C1128    1.0000 0.66993  0.15906  0.89290  Biso   1.000  C
  C1129    1.0000 0.32993  0.84103  0.10710  Biso   1.000  C
  C1130    1.0000 0.54193  0.84396  0.11390  Biso   1.000  C
  C1131    1.0000 0.54193  0.84405  0.11390  Biso   1.000  C
  C1132    1.0000 0.74603  0.86797  0.13020  Biso   1.000  C
  C1133    1.0000 0.41700  0.80997  0.10621  Biso   1.000  C
  C1134    1.0000 0.74589  0.86797  0.13020  Biso   1.000  C
  C1135    1.0000 0.74603  0.86806  0.13020  Biso   1.000  C
  C1136    1.0000 0.41700  0.81006  0.10621  Biso   1.000  C
  C1137    1.0000 0.74589  0.86806  0.13020  Biso   1.000  C
  C1138    1.0000 0.63903  0.87301  0.15331  Biso   1.000  C
  C1139    1.0000 0.63890  0.87301  0.15331  Biso   1.000  C
  C1140    1.0000 0.48703  0.78899  0.06630  Biso   1.000  C
  C1141    1.0000 0.48690  0.78899  0.06630  Biso   1.000  C
  C1142    1.0000 0.66801  0.83196  0.07749  Biso   1.000  C
  C1143    1.0000 0.66801  0.83196  0.07752  Biso   1.000  C
  C1144    1.0000 0.66801  0.83205  0.07749  Biso   1.000  C
  C1145    1.0000 0.66801  0.83205  0.07752  Biso   1.000  C
  C1146    1.0000 0.66788  0.83196  0.07752  Biso   1.000  C
  C1147    1.0000 0.66788  0.83205  0.07752  Biso   1.000  C
  C1148    1.0000 0.32994  0.84103  0.10713  Biso   1.000  C
  C1149    1.0000 0.56794  0.85303  0.14051  Biso   1.000  C
  C1150    1.0000 0.80793  0.85001  0.08900  Biso   1.000  C
  C1151    1.0000 0.80794  0.85001  0.08903  Biso   1.000  C
  Si91     1.0000 0.48990  0.89426  0.19720  Biso   1.000  Si
  Si92     1.0000 0.48991  0.89426  0.19723  Biso   1.000  Si
  Si93     1.0000 0.48990  0.89436  0.19720  Biso   1.000  Si
  Si94     1.0000 0.48991  0.89436  0.19723  Biso   1.000  Si
  Si95     1.0000 0.48977  0.89426  0.19723  Biso   1.000  Si
  Si96     1.0000 0.48977  0.89436  0.19723  Biso   1.000  Si
  C1152    1.0000 0.67103  0.80603  0.05760  Biso   1.000  C
  C1153    1.0000 0.67090  0.80603  0.05763  Biso   1.000  C
  C1154    1.0000 0.67089  0.80603  0.05760  Biso   1.000  C
  C1155    1.0000 0.58901  0.79403  0.03900  Biso   1.000  C
  C1156    1.0000 0.58902  0.79403  0.03903  Biso   1.000  C
  C1157    1.0000 0.58889  0.79403  0.03903  Biso   1.000  C
  C1158    1.0000 0.87295  0.85697  0.08011  Biso   1.000  C
  C1159    1.0000 0.28894  0.99698  0.19089  Biso   1.000  C
  C1160    1.0000 0.36502  0.75298  0.21539  Biso   1.000  C
  C1161    1.0000 0.67595  0.93403  0.23850  Biso   1.000  C
  C1162    1.0000 0.28895  0.99698  0.19092  Biso   1.000  C
  C1163    1.0000 0.36503  0.75298  0.21542  Biso   1.000  C
  C1164    1.0000 0.67596  0.93403  0.23853  Biso   1.000  C
  C1165    1.0000 0.36489  0.75298  0.21542  Biso   1.000  C
  C1166    1.0000 0.36004  0.04196  0.18850  Biso   1.000  C
  C1167    1.0000 0.35992  0.04196  0.18853  Biso   1.000  C
  C1168    1.0000 0.36004  0.04206  0.18850  Biso   1.000  C
  C1169    1.0000 0.35992  0.04206  0.18853  Biso   1.000  C
  C1170    1.0000 0.35991  0.04196  0.18850  Biso   1.000  C
  C1171    1.0000 0.35991  0.04206  0.18850  Biso   1.000  C
  Si97     1.0000 0.72271  0.76452  0.99590  Biso   1.000  Si
  Si98     1.0000 0.72257  0.76452  0.99590  Biso   1.000  Si
  C1172    1.0000 0.17495  0.04902  0.19811  Biso   1.000  C
  C1173    1.0000 0.31601  0.11701  0.17459  Biso   1.000  C
  C1174    1.0000 0.31602  0.11701  0.17462  Biso   1.000  C
  C1175    1.0000 0.31589  0.11701  0.17462  Biso   1.000  C
  C1176    1.0000 0.43496  0.14404  0.16659  Biso   1.000  C
  C1177    1.0000 0.43497  0.14404  0.16662  Biso   1.000  C
  C1178    1.0000 0.57803  0.67601  0.96970  Biso   1.000  C
  C1179    1.0000 0.50001  0.70597  0.95410  Biso   1.000  C
  C1180    1.0000 0.79799  0.90801  0.96860  Biso   1.000  C
  C1181    1.0000 0.57790  0.67601  0.96970  Biso   1.000  C
  C1182    1.0000 0.50002  0.70597  0.95413  Biso   1.000  C
  C1183    1.0000 0.49988  0.70597  0.95413  Biso   1.000  C
  C1184    1.0000 0.79785  0.90801  0.96860  Biso   1.000  C
  C1185    1.0000 0.93102  0.65897  0.00410  Biso   1.000  C
  C1186    1.0000 0.93089  0.65897  0.00413  Biso   1.000  C
  C1187    1.0000 0.93088  0.65897  0.00410  Biso   1.000  C
  C1188    1.0000 0.06102  0.15998  0.18749  Biso   1.000  C
  C1189    1.0000 0.06103  0.15998  0.18752  Biso   1.000  C
  C1190    1.0000 0.06089  0.15998  0.18752  Biso   1.000  C
  C1191    1.0000 0.49398  0.16300  0.15911  Biso   1.000  C
  C1192    1.0000 0.32896  0.25096  0.15511  Biso   1.000  C
  C1193    1.0000 0.15297  0.20002  0.17321  Biso   1.000  C
  C1194    1.0000 0.32896  0.25105  0.15511  Biso   1.000  C
  C1195    1.0000 0.41998  0.72100  0.94959  Biso   1.000  C
  C1196    1.0000 0.48597  0.58100  0.93978  Biso   1.000  C
  C1197    1.0000 0.41999  0.72100  0.94962  Biso   1.000  C
  C1198    1.0000 0.48597  0.58100  0.93982  Biso   1.000  C
  C1199    1.0000 0.35796  0.78899  0.93900  Biso   1.000  C
  C1200    1.0000 0.35797  0.78899  0.93903  Biso   1.000  C
  C1201    1.0000 0.14194  0.25399  0.16419  Biso   1.000  C
  C1202    1.0000 0.14195  0.25399  0.16422  Biso   1.000  C
  C1203    1.0000 0.16201  0.31400  0.15290  Biso   1.000  C
  C1204    1.0000 0.16187  0.31400  0.15290  Biso   1.000  C
  C1205    1.0000 0.96500  0.16703  0.19231  Biso   1.000  C
  C1206    1.0000 0.30294  0.63900  0.91951  Biso   1.000  C
  C1207    1.0000 0.36099  0.85496  0.95719  Biso   1.000  C
  C1208    1.0000 0.36100  0.85496  0.95722  Biso   1.000  C
  C1209    1.0000 0.36099  0.85505  0.95719  Biso   1.000  C
  C1210    1.0000 0.36100  0.85505  0.95722  Biso   1.000  C
  C1211    1.0000 0.35300  0.50696  0.91832  Biso   1.000  C
  C1212    1.0000 0.34995  0.53500  0.90911  Biso   1.000  C
  C1213    1.0000 0.20799  0.74601  0.90901  Biso   1.000  C
  Si99     1.0000 0.98696  0.40920  0.14291  Biso   1.000  Si
  Si100    1.0000 0.98683  0.40920  0.14291  Biso   1.000  Si
  C1214    1.0000 0.16296  0.67995  0.89830  Biso   1.000  C
  C1215    1.0000 0.21397  0.61701  0.89470  Biso   1.000  C
  C1216    1.0000 0.16297  0.67995  0.89833  Biso   1.000  C
  C1217    1.0000 0.16296  0.68004  0.89830  Biso   1.000  C
  C1218    1.0000 0.16297  0.68004  0.89833  Biso   1.000  C
  C1219    1.0000 0.83704  0.32005  0.10170  Biso   1.000  C
  C1220    1.0000 0.78603  0.38299  0.10530  Biso   1.000  C
  C1221    1.0000 0.87101  0.47297  0.18991  Biso   1.000  C
  C1222    1.0000 0.78604  0.38299  0.10533  Biso   1.000  C
  C1223    1.0000 0.87101  0.47306  0.18991  Biso   1.000  C
  C1224    1.0000 0.83690  0.32005  0.10170  Biso   1.000  C
  C1225    1.0000 0.78590  0.38299  0.10533  Biso   1.000  C
  C1226    1.0000 0.11896  0.54004  0.11911  Biso   1.000  C
  Si101    1.0000 0.01304  0.59080  0.85709  Biso   1.000  Si
  Si102    1.0000 0.01305  0.59080  0.85712  Biso   1.000  Si
  C1227    1.0000 0.69706  0.36100  0.08049  Biso   1.000  C
  C1228    1.0000 0.69693  0.36100  0.08052  Biso   1.000  C
  C1229    1.0000 0.69692  0.36100  0.08049  Biso   1.000  C
  C1230    1.0000 0.79201  0.25399  0.09099  Biso   1.000  C
  C1231    1.0000 0.64700  0.49304  0.08168  Biso   1.000  C
  C1232    1.0000 0.65005  0.46500  0.09089  Biso   1.000  C
  C1233    1.0000 0.79202  0.25399  0.09102  Biso   1.000  C
  C1234    1.0000 0.64701  0.49304  0.08172  Biso   1.000  C
  C1235    1.0000 0.64992  0.46500  0.09092  Biso   1.000  C
  C1236    1.0000 0.79189  0.25399  0.09102  Biso   1.000  C
  C1237    1.0000 0.85806  0.74601  0.83581  Biso   1.000  C
  C1238    1.0000 0.83799  0.68600  0.84710  Biso   1.000  C
  C1239    1.0000 0.88104  0.45996  0.88089  Biso   1.000  C
  C1240    1.0000 0.85792  0.74601  0.83581  Biso   1.000  C
  C1241    1.0000 0.83800  0.68600  0.84713  Biso   1.000  C
  C1242    1.0000 0.88091  0.45996  0.88092  Biso   1.000  C
  C1243    1.0000 0.88104  0.46005  0.88089  Biso   1.000  C
  C1244    1.0000 0.88091  0.46005  0.88092  Biso   1.000  C
  C1245    1.0000 0.12899  0.52703  0.81009  Biso   1.000  C
  C1246    1.0000 0.12900  0.52703  0.81012  Biso   1.000  C
  C1247    1.0000 0.58002  0.27900  0.05041  Biso   1.000  C
  C1248    1.0000 0.51403  0.41900  0.06022  Biso   1.000  C
  C1249    1.0000 0.51390  0.41900  0.06022  Biso   1.000  C
  C1250    1.0000 0.64204  0.21101  0.06100  Biso   1.000  C
  C1251    1.0000 0.64190  0.21101  0.06100  Biso   1.000  C
  C1252    1.0000 0.93898  0.84002  0.81251  Biso   1.000  C
  C1253    1.0000 0.67104  0.74904  0.84489  Biso   1.000  C
  C1254    1.0000 0.67105  0.74904  0.84492  Biso   1.000  C
  C1255    1.0000 0.67091  0.74904  0.84492  Biso   1.000  C
  C1256    1.0000 0.84703  0.79998  0.82679  Biso   1.000  C
  C1257    1.0000 0.84704  0.79998  0.82683  Biso   1.000  C
  C1258    1.0000 0.84690  0.79998  0.82683  Biso   1.000  C
  C1259    1.0000 0.42197  0.32399  0.03030  Biso   1.000  C
  C1260    1.0000 0.63901  0.14504  0.04281  Biso   1.000  C
  C1261    1.0000 0.42198  0.32399  0.03033  Biso   1.000  C
  C1262    1.0000 0.49999  0.29403  0.04590  Biso   1.000  C
  C1263    1.0000 0.82505  0.95098  0.80189  Biso   1.000  C
  C1264    1.0000 0.82493  0.95098  0.80192  Biso   1.000  C
  C1265    1.0000 0.82492  0.95098  0.80189  Biso   1.000  C
  C1266    1.0000 0.68399  0.88299  0.82541  Biso   1.000  C
  C1267    1.0000 0.56504  0.85596  0.83341  Biso   1.000  C
  C1268    1.0000 0.50602  0.83700  0.84089  Biso   1.000  C
  C1269    1.0000 0.50603  0.83700  0.84092  Biso   1.000  C
  C1270    1.0000 0.56504  0.85606  0.83341  Biso   1.000  C
  C1271    1.0000 0.56490  0.85596  0.83341  Biso   1.000  C
  C1272    1.0000 0.56490  0.85606  0.83341  Biso   1.000  C
  C1273    1.0000 0.03500  0.83297  0.80769  Biso   1.000  C
  C1274    1.0000 0.03501  0.83297  0.80772  Biso   1.000  C
  C1275    1.0000 0.03500  0.83306  0.80769  Biso   1.000  C
  C1276    1.0000 0.03501  0.83306  0.80772  Biso   1.000  C
  Si103    1.0000 0.27729  0.23548  0.00410  Biso   1.000  Si
  Si104    1.0000 0.27730  0.23548  0.00413  Biso   1.000  Si
  C1277    1.0000 0.63996  0.95804  0.81150  Biso   1.000  C
  C1278    1.0000 0.71106  0.00302  0.80911  Biso   1.000  C
  C1279    1.0000 0.71092  0.00302  0.80911  Biso   1.000  C
  C1280    1.0000 0.32897  0.19397  0.94240  Biso   1.000  C
  C1281    1.0000 0.41099  0.20597  0.96100  Biso   1.000  C
  C1282    1.0000 0.06898  0.34103  0.99590  Biso   1.000  C
  C1283    1.0000 0.32897  0.19406  0.94240  Biso   1.000  C
  C1284    1.0000 0.41099  0.20607  0.96100  Biso   1.000  C
  C1285    1.0000 0.20201  0.09199  0.03140  Biso   1.000  C
  Si105    1.0000 0.51010  0.10574  0.80280  Biso   1.000  Si
  C1286    1.0000 0.19207  0.14999  0.91100  Biso   1.000  C
  C1287    1.0000 0.51297  0.21101  0.93370  Biso   1.000  C
  C1288    1.0000 0.12705  0.14303  0.91989  Biso   1.000  C
  C1289    1.0000 0.19193  0.14999  0.91100  Biso   1.000  C
  C1290    1.0000 0.12706  0.14303  0.91992  Biso   1.000  C
  C1291    1.0000 0.12692  0.14303  0.91992  Biso   1.000  C
  C1292    1.0000 0.33199  0.16804  0.92251  Biso   1.000  C
  C1293    1.0000 0.43206  0.14697  0.85949  Biso   1.000  C
  C1294    1.0000 0.36097  0.12699  0.84669  Biso   1.000  C
  C1295    1.0000 0.43193  0.14697  0.85952  Biso   1.000  C
  C1296    1.0000 0.36098  0.12699  0.84672  Biso   1.000  C
  C1297    1.0000 0.43206  0.14706  0.85949  Biso   1.000  C
  C1298    1.0000 0.43193  0.14706  0.85952  Biso   1.000  C
  C1299    1.0000 0.43192  0.14697  0.85949  Biso   1.000  C
  C1300    1.0000 0.43192  0.14706  0.85949  Biso   1.000  C
  C1301    1.0000 0.63498  0.24702  0.78461  Biso   1.000  C
  C1302    1.0000 0.32405  0.06597  0.76150  Biso   1.000  C
  C1303    1.0000 0.32405  0.06606  0.76150  Biso   1.000  C
  C1304    1.0000 0.32391  0.06597  0.76150  Biso   1.000  C
  C1305    1.0000 0.32391  0.06606  0.76150  Biso   1.000  C
  C1306    1.0000 0.25397  0.13203  0.86980  Biso   1.000  C
  C1307    1.0000 0.25398  0.13203  0.86983  Biso   1.000  C
  C1308    1.0000 0.58300  0.19003  0.89379  Biso   1.000  C
  C1309    1.0000 0.45807  0.15604  0.88610  Biso   1.000  C
  C1310    1.0000 0.58301  0.19003  0.89382  Biso   1.000  C
  C1311    1.0000 0.45794  0.15604  0.88613  Biso   1.000  C
  C1312    1.0000 0.45793  0.15604  0.88610  Biso   1.000  C
  C1313    1.0000 0.67007  0.15897  0.89290  Biso   1.000  C
  C1314    1.0000 0.66993  0.15897  0.89290  Biso   1.000  C
  C1315    1.0000 0.67007  0.15906  0.89290  Biso   1.000  C
  C1316    1.0000 0.66993  0.15906  0.89290  Biso   1.000  C
  C1317    1.0000 0.32993  0.84103  0.10710  Biso   1.000  C
  C1318    1.0000 0.54193  0.84396  0.11390  Biso   1.000  C
  C1319    1.0000 0.54193  0.84405  0.11390  Biso   1.000  C
  C1320    1.0000 0.74603  0.86797  0.13020  Biso   1.000  C
  C1321    1.0000 0.41700  0.80997  0.10621  Biso   1.000  C
  C1322    1.0000 0.74589  0.86797  0.13020  Biso   1.000  C
  C1323    1.0000 0.74603  0.86806  0.13020  Biso   1.000  C
  C1324    1.0000 0.41700  0.81006  0.10621  Biso   1.000  C
  C1325    1.0000 0.74589  0.86806  0.13020  Biso   1.000  C
  C1326    1.0000 0.63903  0.87301  0.15331  Biso   1.000  C
  C1327    1.0000 0.63890  0.87301  0.15331  Biso   1.000  C
  C1328    1.0000 0.48703  0.78899  0.06630  Biso   1.000  C
  C1329    1.0000 0.48690  0.78899  0.06630  Biso   1.000  C
  C1330    1.0000 0.66801  0.83196  0.07749  Biso   1.000  C
  C1331    1.0000 0.66801  0.83196  0.07752  Biso   1.000  C
  C1332    1.0000 0.66801  0.83205  0.07749  Biso   1.000  C
  C1333    1.0000 0.66801  0.83205  0.07752  Biso   1.000  C
  C1334    1.0000 0.66788  0.83196  0.07752  Biso   1.000  C
  C1335    1.0000 0.66788  0.83205  0.07752  Biso   1.000  C
  C1336    1.0000 0.32994  0.84103  0.10713  Biso   1.000  C
  C1337    1.0000 0.56794  0.85303  0.14051  Biso   1.000  C
  C1338    1.0000 0.80793  0.85001  0.08900  Biso   1.000  C
  C1339    1.0000 0.80794  0.85001  0.08903  Biso   1.000  C
  Si106    1.0000 0.48990  0.89426  0.19720  Biso   1.000  Si
  Si107    1.0000 0.48991  0.89426  0.19723  Biso   1.000  Si
  Si108    1.0000 0.48990  0.89436  0.19720  Biso   1.000  Si
  Si109    1.0000 0.48991  0.89436  0.19723  Biso   1.000  Si
  Si110    1.0000 0.48977  0.89426  0.19723  Biso   1.000  Si
  Si111    1.0000 0.48977  0.89436  0.19723  Biso   1.000  Si
  C1340    1.0000 0.67103  0.80603  0.05760  Biso   1.000  C
  C1341    1.0000 0.67090  0.80603  0.05763  Biso   1.000  C
  C1342    1.0000 0.67089  0.80603  0.05760  Biso   1.000  C
  C1343    1.0000 0.58901  0.79403  0.03900  Biso   1.000  C
  C1344    1.0000 0.58902  0.79403  0.03903  Biso   1.000  C
  C1345    1.0000 0.58889  0.79403  0.03903  Biso   1.000  C
  C1346    1.0000 0.87295  0.85697  0.08011  Biso   1.000  C
  C1347    1.0000 0.28894  0.99698  0.19089  Biso   1.000  C
  C1348    1.0000 0.36502  0.75298  0.21539  Biso   1.000  C
  C1349    1.0000 0.67595  0.93403  0.23850  Biso   1.000  C
  C1350    1.0000 0.28895  0.99698  0.19092  Biso   1.000  C
  C1351    1.0000 0.36503  0.75298  0.21542  Biso   1.000  C
  C1352    1.0000 0.67596  0.93403  0.23853  Biso   1.000  C
  C1353    1.0000 0.36489  0.75298  0.21542  Biso   1.000  C
  C1354    1.0000 0.36004  0.04196  0.18850  Biso   1.000  C
  C1355    1.0000 0.35992  0.04196  0.18853  Biso   1.000  C
  C1356    1.0000 0.36004  0.04206  0.18850  Biso   1.000  C
  C1357    1.0000 0.35992  0.04206  0.18853  Biso   1.000  C
  C1358    1.0000 0.35991  0.04196  0.18850  Biso   1.000  C
  C1359    1.0000 0.35991  0.04206  0.18850  Biso   1.000  C
  Si112    1.0000 0.72271  0.76452  0.99590  Biso   1.000  Si
  Si113    1.0000 0.72257  0.76452  0.99590  Biso   1.000  Si
  C1360    1.0000 0.17495  0.04902  0.19811  Biso   1.000  C
  C1361    1.0000 0.31601  0.11701  0.17459  Biso   1.000  C
  C1362    1.0000 0.31602  0.11701  0.17462  Biso   1.000  C
  C1363    1.0000 0.31589  0.11701  0.17462  Biso   1.000  C
  C1364    1.0000 0.43496  0.14404  0.16659  Biso   1.000  C
  C1365    1.0000 0.43497  0.14404  0.16662  Biso   1.000  C
  C1366    1.0000 0.57803  0.67601  0.96970  Biso   1.000  C
  C1367    1.0000 0.50001  0.70597  0.95410  Biso   1.000  C
  C1368    1.0000 0.79799  0.90801  0.96860  Biso   1.000  C
  C1369    1.0000 0.57790  0.67601  0.96970  Biso   1.000  C
  C1370    1.0000 0.50002  0.70597  0.95413  Biso   1.000  C
  C1371    1.0000 0.49988  0.70597  0.95413  Biso   1.000  C
  C1372    1.0000 0.79785  0.90801  0.96860  Biso   1.000  C
  C1373    1.0000 0.93102  0.65897  0.00410  Biso   1.000  C
  C1374    1.0000 0.93089  0.65897  0.00413  Biso   1.000  C
  C1375    1.0000 0.93088  0.65897  0.00410  Biso   1.000  C
  C1376    1.0000 0.06102  0.15998  0.18749  Biso   1.000  C
  C1377    1.0000 0.06103  0.15998  0.18752  Biso   1.000  C
  C1378    1.0000 0.06089  0.15998  0.18752  Biso   1.000  C
  C1379    1.0000 0.49398  0.16300  0.15911  Biso   1.000  C
  C1380    1.0000 0.32896  0.25096  0.15511  Biso   1.000  C
  C1381    1.0000 0.15297  0.20002  0.17321  Biso   1.000  C
  C1382    1.0000 0.32896  0.25105  0.15511  Biso   1.000  C
  C1383    1.0000 0.41998  0.72100  0.94959  Biso   1.000  C
  C1384    1.0000 0.48597  0.58100  0.93978  Biso   1.000  C
  C1385    1.0000 0.41999  0.72100  0.94962  Biso   1.000  C
  C1386    1.0000 0.48597  0.58100  0.93982  Biso   1.000  C
  C1387    1.0000 0.35796  0.78899  0.93900  Biso   1.000  C
  C1388    1.0000 0.35797  0.78899  0.93903  Biso   1.000  C
  C1389    1.0000 0.14194  0.25399  0.16419  Biso   1.000  C
  C1390    1.0000 0.14195  0.25399  0.16422  Biso   1.000  C
  C1391    1.0000 0.16201  0.31400  0.15290  Biso   1.000  C
  C1392    1.0000 0.16187  0.31400  0.15290  Biso   1.000  C
  C1393    1.0000 0.96500  0.16703  0.19231  Biso   1.000  C
  C1394    1.0000 0.30294  0.63900  0.91951  Biso   1.000  C
  C1395    1.0000 0.36099  0.85496  0.95719  Biso   1.000  C
  C1396    1.0000 0.36100  0.85496  0.95722  Biso   1.000  C
  C1397    1.0000 0.36099  0.85505  0.95719  Biso   1.000  C
  C1398    1.0000 0.36100  0.85505  0.95722  Biso   1.000  C
  C1399    1.0000 0.35300  0.50696  0.91832  Biso   1.000  C
  C1400    1.0000 0.34995  0.53500  0.90911  Biso   1.000  C
  C1401    1.0000 0.20799  0.74601  0.90901  Biso   1.000  C
  Si114    1.0000 0.98696  0.40920  0.14291  Biso   1.000  Si
  Si115    1.0000 0.98683  0.40920  0.14291  Biso   1.000  Si
  C1402    1.0000 0.16296  0.67995  0.89830  Biso   1.000  C
  C1403    1.0000 0.21397  0.61701  0.89470  Biso   1.000  C
  C1404    1.0000 0.16297  0.67995  0.89833  Biso   1.000  C
  C1405    1.0000 0.16296  0.68004  0.89830  Biso   1.000  C
  C1406    1.0000 0.16297  0.68004  0.89833  Biso   1.000  C
  C1407    1.0000 0.83704  0.32005  0.10170  Biso   1.000  C
  C1408    1.0000 0.78603  0.38299  0.10530  Biso   1.000  C
  C1409    1.0000 0.87101  0.47297  0.18991  Biso   1.000  C
  C1410    1.0000 0.78604  0.38299  0.10533  Biso   1.000  C
  C1411    1.0000 0.87101  0.47306  0.18991  Biso   1.000  C
  C1412    1.0000 0.83690  0.32005  0.10170  Biso   1.000  C
  C1413    1.0000 0.78590  0.38299  0.10533  Biso   1.000  C
  C1414    1.0000 0.11896  0.54004  0.11911  Biso   1.000  C
  Si116    1.0000 0.01304  0.59080  0.85709  Biso   1.000  Si
  Si117    1.0000 0.01305  0.59080  0.85712  Biso   1.000  Si
  C1415    1.0000 0.69706  0.36100  0.08049  Biso   1.000  C
  C1416    1.0000 0.69693  0.36100  0.08052  Biso   1.000  C
  C1417    1.0000 0.69692  0.36100  0.08049  Biso   1.000  C
  C1418    1.0000 0.79201  0.25399  0.09099  Biso   1.000  C
  C1419    1.0000 0.64700  0.49304  0.08168  Biso   1.000  C
  C1420    1.0000 0.65005  0.46500  0.09089  Biso   1.000  C
  C1421    1.0000 0.79202  0.25399  0.09102  Biso   1.000  C
  C1422    1.0000 0.64701  0.49304  0.08172  Biso   1.000  C
  C1423    1.0000 0.64992  0.46500  0.09092  Biso   1.000  C
  C1424    1.0000 0.79189  0.25399  0.09102  Biso   1.000  C
  C1425    1.0000 0.85806  0.74601  0.83581  Biso   1.000  C
  C1426    1.0000 0.83799  0.68600  0.84710  Biso   1.000  C
  C1427    1.0000 0.88104  0.45996  0.88089  Biso   1.000  C
  C1428    1.0000 0.85792  0.74601  0.83581  Biso   1.000  C
  C1429    1.0000 0.83800  0.68600  0.84713  Biso   1.000  C
  C1430    1.0000 0.88091  0.45996  0.88092  Biso   1.000  C
  C1431    1.0000 0.88104  0.46005  0.88089  Biso   1.000  C
  C1432    1.0000 0.88091  0.46005  0.88092  Biso   1.000  C
  C1433    1.0000 0.12899  0.52703  0.81009  Biso   1.000  C
  C1434    1.0000 0.12900  0.52703  0.81012  Biso   1.000  C
  C1435    1.0000 0.58002  0.27900  0.05041  Biso   1.000  C
  C1436    1.0000 0.51403  0.41900  0.06022  Biso   1.000  C
  C1437    1.0000 0.51390  0.41900  0.06022  Biso   1.000  C
  C1438    1.0000 0.64204  0.21101  0.06100  Biso   1.000  C
  C1439    1.0000 0.64190  0.21101  0.06100  Biso   1.000  C
  C1440    1.0000 0.93898  0.84002  0.81251  Biso   1.000  C
  C1441    1.0000 0.67104  0.74904  0.84489  Biso   1.000  C
  C1442    1.0000 0.67105  0.74904  0.84492  Biso   1.000  C
  C1443    1.0000 0.67091  0.74904  0.84492  Biso   1.000  C
  C1444    1.0000 0.84703  0.79998  0.82679  Biso   1.000  C
  C1445    1.0000 0.84704  0.79998  0.82683  Biso   1.000  C
  C1446    1.0000 0.84690  0.79998  0.82683  Biso   1.000  C
  C1447    1.0000 0.42197  0.32399  0.03030  Biso   1.000  C
  C1448    1.0000 0.63901  0.14504  0.04281  Biso   1.000  C
  C1449    1.0000 0.42198  0.32399  0.03033  Biso   1.000  C
  C1450    1.0000 0.49999  0.29403  0.04590  Biso   1.000  C
  C1451    1.0000 0.82505  0.95098  0.80189  Biso   1.000  C
  C1452    1.0000 0.82493  0.95098  0.80192  Biso   1.000  C
  C1453    1.0000 0.82492  0.95098  0.80189  Biso   1.000  C
  C1454    1.0000 0.68399  0.88299  0.82541  Biso   1.000  C
  C1455    1.0000 0.56504  0.85596  0.83341  Biso   1.000  C
  C1456    1.0000 0.50602  0.83700  0.84089  Biso   1.000  C
  C1457    1.0000 0.50603  0.83700  0.84092  Biso   1.000  C
  C1458    1.0000 0.56504  0.85606  0.83341  Biso   1.000  C
  C1459    1.0000 0.56490  0.85596  0.83341  Biso   1.000  C
  C1460    1.0000 0.56490  0.85606  0.83341  Biso   1.000  C
  C1461    1.0000 0.03500  0.83297  0.80769  Biso   1.000  C
  C1462    1.0000 0.03501  0.83297  0.80772  Biso   1.000  C
  C1463    1.0000 0.03500  0.83306  0.80769  Biso   1.000  C
  C1464    1.0000 0.03501  0.83306  0.80772  Biso   1.000  C
  Si118    1.0000 0.27729  0.23548  0.00410  Biso   1.000  Si
  Si119    1.0000 0.27730  0.23548  0.00413  Biso   1.000  Si
  C1465    1.0000 0.63996  0.95804  0.81150  Biso   1.000  C
  C1466    1.0000 0.71106  0.00302  0.80911  Biso   1.000  C
  C1467    1.0000 0.71092  0.00302  0.80911  Biso   1.000  C
  C1468    1.0000 0.32897  0.19397  0.94240  Biso   1.000  C
  C1469    1.0000 0.41099  0.20597  0.96100  Biso   1.000  C
  C1470    1.0000 0.06898  0.34103  0.99590  Biso   1.000  C
  C1471    1.0000 0.32897  0.19406  0.94240  Biso   1.000  C
  C1472    1.0000 0.41099  0.20607  0.96100  Biso   1.000  C
  C1473    1.0000 0.20201  0.09199  0.03140  Biso   1.000  C
  Si120    1.0000 0.51010  0.10574  0.80280  Biso   1.000  Si
  C1474    1.0000 0.19207  0.14999  0.91100  Biso   1.000  C
  C1475    1.0000 0.51297  0.21101  0.93370  Biso   1.000  C
  C1476    1.0000 0.12705  0.14303  0.91989  Biso   1.000  C
  C1477    1.0000 0.19193  0.14999  0.91100  Biso   1.000  C
  C1478    1.0000 0.12706  0.14303  0.91992  Biso   1.000  C
  C1479    1.0000 0.12692  0.14303  0.91992  Biso   1.000  C
  C1480    1.0000 0.33199  0.16804  0.92251  Biso   1.000  C
  C1481    1.0000 0.43206  0.14697  0.85949  Biso   1.000  C
  C1482    1.0000 0.36097  0.12699  0.84669  Biso   1.000  C
  C1483    1.0000 0.43193  0.14697  0.85952  Biso   1.000  C
  C1484    1.0000 0.36098  0.12699  0.84672  Biso   1.000  C
  C1485    1.0000 0.43206  0.14706  0.85949  Biso   1.000  C
  C1486    1.0000 0.43193  0.14706  0.85952  Biso   1.000  C
  C1487    1.0000 0.43192  0.14697  0.85949  Biso   1.000  C
  C1488    1.0000 0.43192  0.14706  0.85949  Biso   1.000  C
  C1489    1.0000 0.63498  0.24702  0.78461  Biso   1.000  C
  C1490    1.0000 0.32405  0.06597  0.76150  Biso   1.000  C
  C1491    1.0000 0.32405  0.06606  0.76150  Biso   1.000  C
  C1492    1.0000 0.32391  0.06597  0.76150  Biso   1.000  C
  C1493    1.0000 0.32391  0.06606  0.76150  Biso   1.000  C
  C1494    1.0000 0.25397  0.13203  0.86980  Biso   1.000  C
  C1495    1.0000 0.25398  0.13203  0.86983  Biso   1.000  C
  C1496    1.0000 0.58300  0.19003  0.89379  Biso   1.000  C
  C1497    1.0000 0.45807  0.15604  0.88610  Biso   1.000  C
  C1498    1.0000 0.58301  0.19003  0.89382  Biso   1.000  C
  C1499    1.0000 0.45794  0.15604  0.88613  Biso   1.000  C
  C1500    1.0000 0.45793  0.15604  0.88610  Biso   1.000  C
  C1501    1.0000 0.67007  0.15897  0.89290  Biso   1.000  C
  C1502    1.0000 0.66993  0.15897  0.89290  Biso   1.000  C
  C1503    1.0000 0.67007  0.15906  0.89290  Biso   1.000  C
  C1504    1.0000 0.66993  0.15906  0.89290  Biso   1.000  C
  C1505    1.0000 0.32400  0.43403  0.26151  Biso   1.000  C
  Si121    1.0000 0.51005  0.39426  0.30281  Biso   1.000  Si
  C1506    1.0000 0.43201  0.35303  0.35950  Biso   1.000  C
  C1507    1.0000 0.64004  0.54196  0.31151  Biso   1.000  C
  C1508    1.0000 0.36105  0.37301  0.34670  Biso   1.000  C
  C1509    1.0000 0.71100  0.49698  0.30908  Biso   1.000  C
  C1510    1.0000 0.63506  0.25298  0.28459  Biso   1.000  C
  C1511    1.0000 0.63493  0.25298  0.28459  Biso   1.000  C
  C1512    1.0000 0.25406  0.36797  0.36980  Biso   1.000  C
  C1513    1.0000 0.58295  0.30997  0.39380  Biso   1.000  C
  C1514    1.0000 0.56498  0.64404  0.33339  Biso   1.000  C
  C1515    1.0000 0.82500  0.54902  0.30190  Biso   1.000  C
  C1516    1.0000 0.68407  0.61701  0.32542  Biso   1.000  C
  C1517    1.0000 0.68394  0.61701  0.32542  Biso   1.000  C
  C1518    1.0000 0.45802  0.34396  0.38610  Biso   1.000  C
  C1519    1.0000 0.19202  0.35001  0.41101  Biso   1.000  C
  C1520    1.0000 0.51305  0.28899  0.43371  Biso   1.000  C
  C1521    1.0000 0.67099  0.75105  0.34490  Biso   1.000  C
  C1522    1.0000 0.93906  0.65998  0.31249  Biso   1.000  C
  C1523    1.0000 0.93892  0.65998  0.31249  Biso   1.000  C
  C1524    1.0000 0.50597  0.66300  0.34089  Biso   1.000  C
  C1525    1.0000 0.84698  0.70002  0.32680  Biso   1.000  C
  C1526    1.0000 0.33207  0.33205  0.42248  Biso   1.000  C
  C1527    1.0000 0.67002  0.34103  0.39291  Biso   1.000  C
  C1528    1.0000 0.33194  0.33205  0.42248  Biso   1.000  C
  C1529    1.0000 0.32906  0.30603  0.44241  Biso   1.000  C
  C1530    1.0000 0.41107  0.29403  0.46101  Biso   1.000  C
  C1531    1.0000 0.41094  0.29403  0.46101  Biso   1.000  C
  C1532    1.0000 0.85800  0.75399  0.33579  Biso   1.000  C
  C1533    1.0000 0.83794  0.81400  0.34711  Biso   1.000  C
  C1534    1.0000 0.03495  0.66703  0.30770  Biso   1.000  C
  C1535    1.0000 0.12700  0.35697  0.41990  Biso   1.000  C
  Si122    1.0000 0.27738  0.26452  0.50411  Biso   1.000  Si
  Si123    1.0000 0.27724  0.26452  0.50411  Biso   1.000  Si
  Si124    1.0000 0.01313  0.90920  0.35710  Biso   1.000  Si
  C1536    1.0000 0.42205  0.17601  0.53031  Biso   1.000  C
  C1537    1.0000 0.50008  0.20597  0.54591  Biso   1.000  C
  C1538    1.0000 0.06907  0.15897  0.49591  Biso   1.000  C
  C1539    1.0000 0.20196  0.40801  0.53141  Biso   1.000  C
  C1540    1.0000 0.49994  0.20597  0.54591  Biso   1.000  C
  C1541    1.0000 0.88099  0.04004  0.38090  Biso   1.000  C
  C1542    1.0000 0.16305  0.82005  0.39830  Biso   1.000  C
  C1543    1.0000 0.21406  0.88299  0.39471  Biso   1.000  C
  C1544    1.0000 0.12894  0.97306  0.31009  Biso   1.000  C
  C1545    1.0000 0.16291  0.82005  0.39830  Biso   1.000  C
  C1546    1.0000 0.21392  0.88299  0.39471  Biso   1.000  C
  C1547    1.0000 0.57996  0.22100  0.55039  Biso   1.000  C
  C1548    1.0000 0.51398  0.08100  0.56019  Biso   1.000  C
  C1549    1.0000 0.64199  0.28899  0.56101  Biso   1.000  C
  C1550    1.0000 0.30302  0.86100  0.41949  Biso   1.000  C
  C1551    1.0000 0.20793  0.75399  0.40899  Biso   1.000  C
  C1552    1.0000 0.35294  0.99304  0.41829  Biso   1.000  C
  C1553    1.0000 0.35003  0.96500  0.40909  Biso   1.000  C
  C1554    1.0000 0.34990  0.96500  0.40909  Biso   1.000  C
  C1555    1.0000 0.69701  0.13900  0.58050  Biso   1.000  C
  C1556    1.0000 0.63895  0.35505  0.54279  Biso   1.000  C
  C1557    1.0000 0.64695  0.00696  0.58169  Biso   1.000  C
  C1558    1.0000 0.65000  0.03500  0.59090  Biso   1.000  C
  C1559    1.0000 0.79197  0.24601  0.59099  Biso   1.000  C
  C1560    1.0000 0.41993  0.77900  0.44960  Biso   1.000  C
  C1561    1.0000 0.48605  0.91900  0.43979  Biso   1.000  C
  C1562    1.0000 0.48592  0.91900  0.43979  Biso   1.000  C
  C1563    1.0000 0.35805  0.71101  0.43900  Biso   1.000  C
  C1564    1.0000 0.35792  0.71101  0.43900  Biso   1.000  C
  C1565    1.0000 0.83699  0.18004  0.60171  Biso   1.000  C
  C1566    1.0000 0.78598  0.11701  0.60531  Biso   1.000  C
  C1567    1.0000 0.57798  0.82399  0.46971  Biso   1.000  C
  C1568    1.0000 0.36094  0.64504  0.45720  Biso   1.000  C
  C1569    1.0000 0.49996  0.79403  0.45411  Biso   1.000  C
  Si125    1.0000 0.98690  0.09080  0.64289  Biso   1.000  Si
  Si126    1.0000 0.72266  0.73548  0.49591  Biso   1.000  Si
  C1570    1.0000 0.87095  0.02703  0.68989  Biso   1.000  C
  C1571    1.0000 0.11905  0.95996  0.61911  Biso   1.000  C
  C1572    1.0000 0.11891  0.95996  0.61911  Biso   1.000  C
  C1573    1.0000 0.14203  0.24601  0.66420  Biso   1.000  C
  C1574    1.0000 0.16196  0.18600  0.65291  Biso   1.000  C
  C1575    1.0000 0.67098  0.69397  0.55761  Biso   1.000  C
  C1576    1.0000 0.58896  0.70597  0.53901  Biso   1.000  C
  C1577    1.0000 0.93097  0.84103  0.50411  Biso   1.000  C
  C1578    1.0000 0.79794  0.59199  0.46861  Biso   1.000  C
  C1579    1.0000 0.06097  0.34002  0.68750  Biso   1.000  C
  C1580    1.0000 0.32904  0.24904  0.65509  Biso   1.000  C
  C1581    1.0000 0.32891  0.24904  0.65509  Biso   1.000  C
  C1582    1.0000 0.15306  0.29998  0.67321  Biso   1.000  C
  C1583    1.0000 0.15292  0.29998  0.67321  Biso   1.000  C
  C1584    1.0000 0.80802  0.64999  0.58901  Biso   1.000  C
  C1585    1.0000 0.48698  0.71101  0.56631  Biso   1.000  C
  C1586    1.0000 0.87303  0.64303  0.58009  Biso   1.000  C
  C1587    1.0000 0.87289  0.64303  0.58009  Biso   1.000  C
  C1588    1.0000 0.66796  0.66804  0.57750  Biso   1.000  C
  C1589    1.0000 0.17502  0.45098  0.69809  Biso   1.000  C
  C1590    1.0000 0.31597  0.38299  0.67460  Biso   1.000  C
  C1591    1.0000 0.43505  0.35596  0.66659  Biso   1.000  C
  C1592    1.0000 0.49393  0.33700  0.65909  Biso   1.000  C
  C1593    1.0000 0.43491  0.35596  0.66659  Biso   1.000  C
  C1594    1.0000 0.96495  0.33297  0.69229  Biso   1.000  C
  C1595    1.0000 0.74598  0.63203  0.63021  Biso   1.000  C
  C1596    1.0000 0.41694  0.69003  0.60619  Biso   1.000  C
  C1597    1.0000 0.54202  0.65604  0.61391  Biso   1.000  C
  C1598    1.0000 0.35999  0.45804  0.68850  Biso   1.000  C
  C1599    1.0000 0.28903  0.50302  0.69090  Biso   1.000  C
  C1600    1.0000 0.56802  0.64697  0.64049  Biso   1.000  C
  C1601    1.0000 0.63898  0.62699  0.65329  Biso   1.000  C
  C1602    1.0000 0.33002  0.65897  0.60710  Biso   1.000  C
  Si127    1.0000 0.48985  0.60574  0.69721  Biso   1.000  Si
  C1603    1.0000 0.36497  0.74702  0.71540  Biso   1.000  C
  C1604    1.0000 0.67604  0.56597  0.73851  Biso   1.000  C
  C1605    1.0000 0.67590  0.56597  0.73851  Biso   1.000  C
  C1606    1.0000 0.32400  0.43403  0.26151  Biso   1.000  C
  Si128    1.0000 0.51005  0.39426  0.30281  Biso   1.000  Si
  C1607    1.0000 0.43201  0.35303  0.35950  Biso   1.000  C
  C1608    1.0000 0.64004  0.54196  0.31151  Biso   1.000  C
  C1609    1.0000 0.36105  0.37301  0.34670  Biso   1.000  C
  C1610    1.0000 0.71100  0.49698  0.30908  Biso   1.000  C
  C1611    1.0000 0.63506  0.25298  0.28459  Biso   1.000  C
  C1612    1.0000 0.63493  0.25298  0.28459  Biso   1.000  C
  C1613    1.0000 0.25406  0.36797  0.36980  Biso   1.000  C
  C1614    1.0000 0.58295  0.30997  0.39380  Biso   1.000  C
  C1615    1.0000 0.56498  0.64404  0.33339  Biso   1.000  C
  C1616    1.0000 0.82500  0.54902  0.30190  Biso   1.000  C
  C1617    1.0000 0.68407  0.61701  0.32542  Biso   1.000  C
  C1618    1.0000 0.68394  0.61701  0.32542  Biso   1.000  C
  C1619    1.0000 0.45802  0.34396  0.38610  Biso   1.000  C
  C1620    1.0000 0.19202  0.35001  0.41101  Biso   1.000  C
  C1621    1.0000 0.51305  0.28899  0.43371  Biso   1.000  C
  C1622    1.0000 0.67099  0.75105  0.34490  Biso   1.000  C
  C1623    1.0000 0.93906  0.65998  0.31249  Biso   1.000  C
  C1624    1.0000 0.93892  0.65998  0.31249  Biso   1.000  C
  C1625    1.0000 0.50597  0.66300  0.34089  Biso   1.000  C
  C1626    1.0000 0.84698  0.70002  0.32680  Biso   1.000  C
  C1627    1.0000 0.67002  0.34103  0.39291  Biso   1.000  C
  C1628    1.0000 0.33207  0.33205  0.42248  Biso   1.000  C
  C1629    1.0000 0.33194  0.33205  0.42248  Biso   1.000  C
  C1630    1.0000 0.32906  0.30603  0.44241  Biso   1.000  C
  C1631    1.0000 0.41107  0.29403  0.46101  Biso   1.000  C
  C1632    1.0000 0.41094  0.29403  0.46101  Biso   1.000  C
  C1633    1.0000 0.85800  0.75399  0.33579  Biso   1.000  C
  C1634    1.0000 0.83794  0.81400  0.34711  Biso   1.000  C
  C1635    1.0000 0.03495  0.66703  0.30770  Biso   1.000  C
  C1636    1.0000 0.12700  0.35697  0.41990  Biso   1.000  C
  Si129    1.0000 0.27738  0.26452  0.50411  Biso   1.000  Si
  Si130    1.0000 0.27724  0.26452  0.50411  Biso   1.000  Si
  Si131    1.0000 0.01313  0.90920  0.35710  Biso   1.000  Si
  C1637    1.0000 0.42205  0.17601  0.53031  Biso   1.000  C
  C1638    1.0000 0.06907  0.15897  0.49591  Biso   1.000  C
  C1639    1.0000 0.20196  0.40801  0.53141  Biso   1.000  C
  C1640    1.0000 0.50008  0.20597  0.54591  Biso   1.000  C
  C1641    1.0000 0.49994  0.20597  0.54591  Biso   1.000  C
  C1642    1.0000 0.88099  0.04004  0.38090  Biso   1.000  C
  C1643    1.0000 0.16305  0.82005  0.39830  Biso   1.000  C
  C1644    1.0000 0.21406  0.88299  0.39471  Biso   1.000  C
  C1645    1.0000 0.12894  0.97306  0.31009  Biso   1.000  C
  C1646    1.0000 0.16291  0.82005  0.39830  Biso   1.000  C
  C1647    1.0000 0.21392  0.88299  0.39471  Biso   1.000  C
  C1648    1.0000 0.57996  0.22100  0.55039  Biso   1.000  C
  C1649    1.0000 0.51398  0.08100  0.56019  Biso   1.000  C
  C1650    1.0000 0.64199  0.28899  0.56101  Biso   1.000  C
  C1651    1.0000 0.30302  0.86100  0.41949  Biso   1.000  C
  C1652    1.0000 0.20793  0.75399  0.40899  Biso   1.000  C
  C1653    1.0000 0.35294  0.99304  0.41829  Biso   1.000  C
  C1654    1.0000 0.35003  0.96500  0.40909  Biso   1.000  C
  C1655    1.0000 0.34990  0.96500  0.40909  Biso   1.000  C
  C1656    1.0000 0.69701  0.13900  0.58050  Biso   1.000  C
  C1657    1.0000 0.63895  0.35505  0.54279  Biso   1.000  C
  C1658    1.0000 0.64695  0.00696  0.58169  Biso   1.000  C
  C1659    1.0000 0.65000  0.03500  0.59090  Biso   1.000  C
  C1660    1.0000 0.79197  0.24601  0.59099  Biso   1.000  C
  C1661    1.0000 0.41993  0.77900  0.44960  Biso   1.000  C
  C1662    1.0000 0.48605  0.91900  0.43979  Biso   1.000  C
  C1663    1.0000 0.48592  0.91900  0.43979  Biso   1.000  C
  C1664    1.0000 0.35805  0.71101  0.43900  Biso   1.000  C
  C1665    1.0000 0.35792  0.71101  0.43900  Biso   1.000  C
  C1666    1.0000 0.83699  0.18004  0.60171  Biso   1.000  C
  C1667    1.0000 0.78598  0.11701  0.60531  Biso   1.000  C
  C1668    1.0000 0.57798  0.82399  0.46971  Biso   1.000  C
  C1669    1.0000 0.36094  0.64504  0.45720  Biso   1.000  C
  C1670    1.0000 0.49996  0.79403  0.45411  Biso   1.000  C
  Si132    1.0000 0.98690  0.09080  0.64289  Biso   1.000  Si
  Si133    1.0000 0.72266  0.73548  0.49591  Biso   1.000  Si
  C1671    1.0000 0.87095  0.02703  0.68989  Biso   1.000  C
  C1672    1.0000 0.11905  0.95996  0.61911  Biso   1.000  C
  C1673    1.0000 0.11891  0.95996  0.61911  Biso   1.000  C
  C1674    1.0000 0.14203  0.24601  0.66420  Biso   1.000  C
  C1675    1.0000 0.16196  0.18600  0.65291  Biso   1.000  C
  C1676    1.0000 0.67098  0.69397  0.55761  Biso   1.000  C
  C1677    1.0000 0.58896  0.70597  0.53901  Biso   1.000  C
  C1678    1.0000 0.93097  0.84103  0.50411  Biso   1.000  C
  C1679    1.0000 0.79794  0.59199  0.46861  Biso   1.000  C
  C1680    1.0000 0.06097  0.34002  0.68750  Biso   1.000  C
  C1681    1.0000 0.32904  0.24904  0.65509  Biso   1.000  C
  C1682    1.0000 0.32891  0.24904  0.65509  Biso   1.000  C
  C1683    1.0000 0.15306  0.29998  0.67321  Biso   1.000  C
  C1684    1.0000 0.15292  0.29998  0.67321  Biso   1.000  C
  C1685    1.0000 0.80802  0.64999  0.58901  Biso   1.000  C
  C1686    1.0000 0.48698  0.71101  0.56631  Biso   1.000  C
  C1687    1.0000 0.87303  0.64303  0.58009  Biso   1.000  C
  C1688    1.0000 0.87289  0.64303  0.58009  Biso   1.000  C
  C1689    1.0000 0.66796  0.66804  0.57750  Biso   1.000  C
  C1690    1.0000 0.17502  0.45098  0.69809  Biso   1.000  C
  C1691    1.0000 0.31597  0.38299  0.67460  Biso   1.000  C
  C1692    1.0000 0.43505  0.35596  0.66659  Biso   1.000  C
  C1693    1.0000 0.49393  0.33700  0.65909  Biso   1.000  C
  C1694    1.0000 0.43491  0.35596  0.66659  Biso   1.000  C
  C1695    1.0000 0.96495  0.33297  0.69229  Biso   1.000  C
  C1696    1.0000 0.74598  0.63203  0.63021  Biso   1.000  C
  C1697    1.0000 0.41694  0.69003  0.60619  Biso   1.000  C
  C1698    1.0000 0.54202  0.65604  0.61391  Biso   1.000  C
  C1699    1.0000 0.35999  0.45804  0.68850  Biso   1.000  C
  C1700    1.0000 0.28903  0.50302  0.69090  Biso   1.000  C
  C1701    1.0000 0.56802  0.64697  0.64049  Biso   1.000  C
  C1702    1.0000 0.63898  0.62699  0.65329  Biso   1.000  C
  C1703    1.0000 0.33002  0.65897  0.60710  Biso   1.000  C
  Si134    1.0000 0.48985  0.60574  0.69721  Biso   1.000  Si
  C1704    1.0000 0.36497  0.74702  0.71540  Biso   1.000  C
  C1705    1.0000 0.67604  0.56597  0.73851  Biso   1.000  C
  C1706    1.0000 0.67590  0.56597  0.73851  Biso   1.000  C
