data_image0
_cell_length_a       47.826
_cell_length_b       21.189
_cell_length_c       27.01
_cell_angle_alpha    90
_cell_angle_beta     94.63
_cell_angle_gamma    90

_symmetry_space_group_name_H-M    "P 1"
_symmetry_int_tables_number       1

loop_
  _symmetry_equiv_pos_as_xyz
  'x, y, z'

loop_
  _atom_site_label
  _atom_site_occupancy
  _atom_site_fract_x
  _atom_site_fract_y
  _atom_site_fract_z
  _atom_site_thermal_displace_type
  _atom_site_B_iso_or_equiv
  _atom_site_type_symbol
  C1       1.0000 0.42340  0.46538  0.46308  Biso   1.000  C
  C2       1.0000 0.41981  0.52551  0.47411  Biso   1.000  C
  H1       1.0000 0.40841  0.44292  0.44611  Biso   1.000  H
  C3       1.0000 0.44930  0.43329  0.47619  Biso   1.000  C
  C4       1.0000 0.44190  0.55949  0.50290  Biso   1.000  C
  H2       1.0000 0.40281  0.54642  0.46319  Biso   1.000  H
  C5       1.0000 0.47291  0.46661  0.49599  Biso   1.000  C
  C6       1.0000 0.45141  0.36580  0.47118  Biso   1.000  C
  C7       1.0000 0.43682  0.62230  0.51891  Biso   1.000  C
  C8       1.0000 0.46792  0.53112  0.51538  Biso   1.000  C
  C9       1.0000 0.50000  0.43631  0.50000  Biso   1.000  C
  C10      1.0000 0.47551  0.33550  0.48648  Biso   1.000  C
  H3       1.0000 0.43582  0.34239  0.45699  Biso   1.000  H
  C11      1.0000 0.41032  0.65119  0.50580  Biso   1.000  C
  C12      1.0000 0.45720  0.65251  0.55048  Biso   1.000  C
  C13      1.0000 0.48642  0.56341  0.54781  Biso   1.000  C
  C14      1.0000 0.52712  0.46661  0.50401  Biso   1.000  C
  C15      1.0000 0.50000  0.36859  0.50000  Biso   1.000  C
  H4       1.0000 0.47562  0.29072  0.48800  Biso   1.000  H
  C16      1.0000 0.38801  0.67441  0.49399  Biso   1.000  C
  H5       1.0000 0.45421  0.69442  0.56148  Biso   1.000  H
  C17      1.0000 0.48142  0.62122  0.56519  Biso   1.000  C
  H6       1.0000 0.50371  0.54358  0.55839  Biso   1.000  H
  C18      1.0000 0.53211  0.53112  0.48459  Biso   1.000  C
  C19      1.0000 0.55071  0.43329  0.52381  Biso   1.000  C
  C20      1.0000 0.52452  0.33550  0.51349  Biso   1.000  C
  C21      1.0000 0.36002  0.69999  0.47939  Biso   1.000  C
  H7       1.0000 0.49490  0.64071  0.58811  Biso   1.000  H
  C22      1.0000 0.51361  0.56341  0.45220  Biso   1.000  C
  C23      1.0000 0.55810  0.55949  0.49711  Biso   1.000  C
  C24      1.0000 0.57660  0.46538  0.53689  Biso   1.000  C
  C25      1.0000 0.54861  0.36580  0.52879  Biso   1.000  C
  H8       1.0000 0.52441  0.29072  0.51200  Biso   1.000  H
  C26      1.0000 0.35631  0.73892  0.43790  Biso   1.000  C
  C27      1.0000 0.33711  0.68441  0.50431  Biso   1.000  C
  C28      1.0000 0.51861  0.62122  0.43481  Biso   1.000  C
  H9       1.0000 0.49632  0.54358  0.44161  Biso   1.000  H
  C29      1.0000 0.56321  0.62230  0.48110  Biso   1.000  C
  C30      1.0000 0.58022  0.52551  0.52589  Biso   1.000  C
  H10      1.0000 0.59162  0.44292  0.55390  Biso   1.000  H
  H11      1.0000 0.56421  0.34239  0.54298  Biso   1.000  H
  C31      1.0000 0.33101  0.76172  0.41910  Biso   1.000  C
  H12      1.0000 0.37250  0.75029  0.42170  Biso   1.000  H
  C32      1.0000 0.31030  0.70749  0.48830  Biso   1.000  C
  H13      1.0000 0.33930  0.65779  0.53269  Biso   1.000  H
  C33      1.0000 0.54280  0.65251  0.44949  Biso   1.000  C
  H14      1.0000 0.50510  0.64071  0.41190  Biso   1.000  H
  C34      1.0000 0.58971  0.65119  0.49421  Biso   1.000  C
  H15      1.0000 0.59721  0.54642  0.53681  Biso   1.000  H
  C35      1.0000 0.30752  0.74581  0.44599  Biso   1.000  C
  C36      1.0000 0.32740  0.80400  0.37308  Biso   1.000  C
  C37      1.0000 0.28651  0.68781  0.51300  Biso   1.000  C
  H16      1.0000 0.54581  0.69442  0.43849  Biso   1.000  H
  C38      1.0000 0.61201  0.67441  0.50598  Biso   1.000  C
  O1       1.0000 0.28158  0.76851  0.43010  Biso   1.000  O
  C39      1.0000 0.30800  0.77342  0.33419  Biso   1.000  C
  C40      1.0000 0.35560  0.81320  0.34949  Biso   1.000  C
  C41      1.0000 0.31672  0.86899  0.38630  Biso   1.000  C
  H17      1.0000 0.28952  0.66072  0.54101  Biso   1.000  H
  N1       1.0000 0.26120  0.70442  0.49959  Biso   1.000  N
  C42      1.0000 0.64001  0.69999  0.52058  Biso   1.000  C
  H18      1.0000 0.31521  0.73170  0.32620  Biso   1.000  H
  H19      1.0000 0.28941  0.76880  0.34648  Biso   1.000  H
  H20      1.0000 0.30651  0.79971  0.30421  Biso   1.000  H
  H21      1.0000 0.36921  0.83322  0.37371  Biso   1.000  H
  H22      1.0000 0.36282  0.77210  0.33991  Biso   1.000  H
  H23      1.0000 0.35271  0.84020  0.32011  Biso   1.000  H
  H24      1.0000 0.32971  0.88820  0.41178  Biso   1.000  H
  H25      1.0000 0.31530  0.89570  0.35659  Biso   1.000  H
  H26      1.0000 0.29820  0.86488  0.39901  Biso   1.000  H
  C43      1.0000 0.23822  0.67870  0.52560  Biso   1.000  C
  C44      1.0000 0.64372  0.73892  0.56211  Biso   1.000  C
  C45      1.0000 0.66292  0.68441  0.49569  Biso   1.000  C
  C46      1.0000 0.22330  0.73368  0.54981  Biso   1.000  C
  H27      1.0000 0.24562  0.64840  0.55130  Biso   1.000  H
  H28      1.0000 0.22490  0.65610  0.50190  Biso   1.000  H
  C47      1.0000 0.66902  0.76172  0.58090  Biso   1.000  C
  H29      1.0000 0.62752  0.75029  0.57830  Biso   1.000  H
  C48      1.0000 0.68970  0.70749  0.51170  Biso   1.000  C
  H30      1.0000 0.66070  0.65779  0.46728  Biso   1.000  H
  H31      1.0000 0.22012  0.76818  0.52530  Biso   1.000  H
  H32      1.0000 0.20472  0.71910  0.55899  Biso   1.000  H
  N2       1.0000 0.23894  0.75799  0.59338  Biso   1.000  N
  C49      1.0000 0.69251  0.74581  0.55401  Biso   1.000  C
  C50      1.0000 0.67262  0.80400  0.62689  Biso   1.000  C
  C51      1.0000 0.71352  0.68781  0.48700  Biso   1.000  C
  C52      1.0000 0.23042  0.82161  0.60490  Biso   1.000  C
  C53      1.0000 0.23781  0.71509  0.63599  Biso   1.000  C
  O2       1.0000 0.71845  0.76851  0.56991  Biso   1.000  O
  C54      1.0000 0.69202  0.77342  0.66578  Biso   1.000  C
  C55      1.0000 0.64440  0.81320  0.65051  Biso   1.000  C
  C56      1.0000 0.68331  0.86899  0.61370  Biso   1.000  C
  H33      1.0000 0.71051  0.66072  0.45900  Biso   1.000  H
  N3       1.0000 0.73880  0.70442  0.50041  Biso   1.000  N
  H34      1.0000 0.23652  0.83090  0.64011  Biso   1.000  H
  H35      1.0000 0.20961  0.82411  0.60111  Biso   1.000  H
  C57      1.0000 0.24232  0.87102  0.57240  Biso   1.000  C
  C58      1.0000 0.26241  0.72170  0.67328  Biso   1.000  C
  H36      1.0000 0.23692  0.67101  0.62381  Biso   1.000  H
  H37      1.0000 0.22041  0.72349  0.65241  Biso   1.000  H
  H38      1.0000 0.68482  0.73170  0.67380  Biso   1.000  H
  H39      1.0000 0.71061  0.76880  0.65348  Biso   1.000  H
  H40      1.0000 0.69351  0.79971  0.69579  Biso   1.000  H
  H41      1.0000 0.63082  0.83322  0.62629  Biso   1.000  H
  H42      1.0000 0.63721  0.77210  0.66010  Biso   1.000  H
  H43      1.0000 0.64731  0.84020  0.67989  Biso   1.000  H
  H44      1.0000 0.67031  0.88820  0.58818  Biso   1.000  H
  H45      1.0000 0.68471  0.89570  0.64338  Biso   1.000  H
  H46      1.0000 0.70182  0.86488  0.60100  Biso   1.000  H
  C59      1.0000 0.76181  0.67870  0.47441  Biso   1.000  C
  H47      1.0000 0.24010  0.85728  0.53718  Biso   1.000  H
  H48      1.0000 0.23201  0.91132  0.57518  Biso   1.000  H
  N4       1.0000 0.27218  0.88013  0.58818  Biso   1.000  N
  H49      1.0000 0.26621  0.76710  0.67919  Biso   1.000  H
  H50      1.0000 0.25761  0.70282  0.70508  Biso   1.000  H
  N5       1.0000 0.28796  0.69121  0.65768  Biso   1.000  N
  C60      1.0000 0.77670  0.73368  0.45019  Biso   1.000  C
  H51      1.0000 0.75441  0.64840  0.44871  Biso   1.000  H
  H52      1.0000 0.77510  0.65610  0.49811  Biso   1.000  H
  C61      1.0000 0.29051  0.87069  0.55769  Biso   1.000  C
  C62      1.0000 0.30921  0.72472  0.64970  Biso   1.000  C
  H53      1.0000 0.77991  0.76818  0.47471  Biso   1.000  H
  H54      1.0000 0.79531  0.71910  0.44098  Biso   1.000  H
  N6       1.0000 0.76108  0.75799  0.40658  Biso   1.000  N
  H55      1.0000 0.28462  0.85639  0.52519  Biso   1.000  H
  C63      1.0000 0.32020  0.88088  0.57058  Biso   1.000  C
  C64      1.0000 0.33591  0.69772  0.63759  Biso   1.000  C
  H56      1.0000 0.30772  0.76931  0.65181  Biso   1.000  H
  C65      1.0000 0.76961  0.82161  0.39511  Biso   1.000  C
  C66      1.0000 0.76221  0.71509  0.36398  Biso   1.000  C
  C67      1.0000 0.33010  0.89900  0.61898  Biso   1.000  C
  C68      1.0000 0.33920  0.87149  0.53421  Biso   1.000  C
  C69      1.0000 0.34001  0.63070  0.63811  Biso   1.000  C
  C70      1.0000 0.35782  0.73802  0.62930  Biso   1.000  C
  H57      1.0000 0.76351  0.83090  0.35989  Biso   1.000  H
  H58      1.0000 0.79040  0.82411  0.39890  Biso   1.000  H
  C71      1.0000 0.75771  0.87102  0.42761  Biso   1.000  C
  C72      1.0000 0.73760  0.72170  0.32669  Biso   1.000  C
  H59      1.0000 0.76310  0.67101  0.37620  Biso   1.000  H
  H60      1.0000 0.77961  0.72349  0.34760  Biso   1.000  H
  O3       1.0000 0.31214  0.90778  0.65371  Biso   1.000  O
  C73      1.0000 0.35941  0.90901  0.63109  Biso   1.000  C
  C74      1.0000 0.36721  0.88258  0.54361  Biso   1.000  C
  H61      1.0000 0.33241  0.85700  0.50219  Biso   1.000  H
  O4       1.0000 0.31886  0.59361  0.64468  Biso   1.000  O
  C75      1.0000 0.36702  0.60659  0.63019  Biso   1.000  C
  C76      1.0000 0.38412  0.71452  0.62228  Biso   1.000  C
  H62      1.0000 0.35481  0.78229  0.62841  Biso   1.000  H
  H63      1.0000 0.75990  0.85728  0.46278  Biso   1.000  H
  H64      1.0000 0.76802  0.91132  0.42478  Biso   1.000  H
  N7       1.0000 0.72784  0.88013  0.41178  Biso   1.000  N
  H65      1.0000 0.73381  0.76710  0.32078  Biso   1.000  H
  H66      1.0000 0.74240  0.70282  0.29489  Biso   1.000  H
  N8       1.0000 0.71207  0.69121  0.34229  Biso   1.000  N
  C77      1.0000 0.37681  0.90141  0.59279  Biso   1.000  C
  C78      1.0000 0.37091  0.92581  0.68391  Biso   1.000  C
  C79      1.0000 0.38782  0.87262  0.50721  Biso   1.000  C
  C80      1.0000 0.38781  0.64892  0.62258  Biso   1.000  C
  C81      1.0000 0.37261  0.53518  0.63131  Biso   1.000  C
  C82      1.0000 0.40772  0.75520  0.61809  Biso   1.000  C
  C83      1.0000 0.70952  0.87069  0.44228  Biso   1.000  C
  C84      1.0000 0.69081  0.72472  0.35031  Biso   1.000  C
  H67      1.0000 0.39632  0.90920  0.59970  Biso   1.000  H
  C85      1.0000 0.36511  0.87262  0.71778  Biso   1.000  C
  C86      1.0000 0.40152  0.93539  0.68710  Biso   1.000  C
  C87      1.0000 0.35861  0.98669  0.70159  Biso   1.000  C
  C88      1.0000 0.40301  0.86413  0.47630  Biso   1.000  C
  H68      1.0000 0.40592  0.63292  0.61708  Biso   1.000  H
  C89      1.0000 0.35471  0.50271  0.59049  Biso   1.000  C
  C90      1.0000 0.40341  0.52079  0.62080  Biso   1.000  C
  C91      1.0000 0.36862  0.51102  0.68238  Biso   1.000  C
  C92      1.0000 0.42841  0.78862  0.61690  Biso   1.000  C
  H69      1.0000 0.71541  0.85639  0.47478  Biso   1.000  H
  C93      1.0000 0.67980  0.88088  0.42939  Biso   1.000  C
  C94      1.0000 0.66410  0.69772  0.36238  Biso   1.000  C
  H70      1.0000 0.69230  0.76931  0.34819  Biso   1.000  H
  H71      1.0000 0.34481  0.86521  0.71641  Biso   1.000  H
  H72      1.0000 0.37451  0.83440  0.70731  Biso   1.000  H
  H73      1.0000 0.37202  0.88338  0.75188  Biso   1.000  H
  H74      1.0000 0.40602  0.97022  0.66518  Biso   1.000  H
  H75      1.0000 0.40820  0.94573  0.72138  Biso   1.000  H
  H76      1.0000 0.41071  0.89679  0.67688  Biso   1.000  H
  H77      1.0000 0.33811  0.98301  0.70021  Biso   1.000  H
  H78      1.0000 0.36602  0.99519  0.73580  Biso   1.000  H
  H79      1.0000 0.36371  0.02152  0.68008  Biso   1.000  H
  C95      1.0000 0.42131  0.84879  0.43838  Biso   1.000  C
  H80      1.0000 0.35851  0.52088  0.55828  Biso   1.000  H
  H81      1.0000 0.35911  0.45750  0.59060  Biso   1.000  H
  H82      1.0000 0.33491  0.50852  0.59598  Biso   1.000  H
  H83      1.0000 0.40681  0.53599  0.58748  Biso   1.000  H
  H84      1.0000 0.41621  0.54222  0.64561  Biso   1.000  H
  H85      1.0000 0.40671  0.47520  0.62258  Biso   1.000  H
  H86      1.0000 0.38092  0.53429  0.70679  Biso   1.000  H
  H87      1.0000 0.34911  0.51701  0.68959  Biso   1.000  H
  H88      1.0000 0.37331  0.46600  0.68420  Biso   1.000  H
  C96      1.0000 0.45251  0.82802  0.61991  Biso   1.000  C
  C97      1.0000 0.66990  0.89900  0.38099  Biso   1.000  C
  C98      1.0000 0.66080  0.87149  0.46579  Biso   1.000  C
  C99      1.0000 0.66000  0.63070  0.36190  Biso   1.000  C
  C100     1.0000 0.64221  0.73802  0.37070  Biso   1.000  C
  C101     1.0000 0.43590  0.79192  0.44091  Biso   1.000  C
  C102     1.0000 0.42342  0.88881  0.39552  Biso   1.000  C
  C103     1.0000 0.46950  0.83440  0.66619  Biso   1.000  C
  C104     1.0000 0.45920  0.86271  0.57879  Biso   1.000  C
  O5       1.0000 0.68789  0.90778  0.34630  Biso   1.000  O
  C105     1.0000 0.64060  0.90901  0.36888  Biso   1.000  C
  C106     1.0000 0.63282  0.88258  0.45639  Biso   1.000  C
  H89      1.0000 0.66762  0.85700  0.49781  Biso   1.000  H
  O6       1.0000 0.68117  0.59361  0.35529  Biso   1.000  O
  C107     1.0000 0.63301  0.60659  0.36981  Biso   1.000  C
  C108     1.0000 0.61591  0.71452  0.37769  Biso   1.000  C
  H90      1.0000 0.64522  0.78229  0.37159  Biso   1.000  H
  H91      1.0000 0.43541  0.76521  0.46910  Biso   1.000  H
  C109     1.0000 0.45140  0.77479  0.40120  Biso   1.000  C
  C110     1.0000 0.44042  0.87239  0.35789  Biso   1.000  C
  C111     1.0000 0.40620  0.94332  0.38991  Biso   1.000  C
  C112     1.0000 0.46032  0.80518  0.70961  Biso   1.000  C
  C113     1.0000 0.49362  0.87220  0.66908  Biso   1.000  C
  C114     1.0000 0.48260  0.90410  0.58428  Biso   1.000  C
  H92      1.0000 0.44841  0.85889  0.54788  Biso   1.000  H
  C115     1.0000 0.62321  0.90141  0.40718  Biso   1.000  C
  C116     1.0000 0.62910  0.92581  0.31610  Biso   1.000  C
  C117     1.0000 0.61221  0.87262  0.49280  Biso   1.000  C
  C118     1.0000 0.61222  0.64892  0.37739  Biso   1.000  C
  C119     1.0000 0.62742  0.53518  0.36870  Biso   1.000  C
  C120     1.0000 0.59231  0.75520  0.38188  Biso   1.000  C
  H93      1.0000 0.46081  0.73529  0.40209  Biso   1.000  H
  C121     1.0000 0.45330  0.81349  0.36160  Biso   1.000  C
  C122     1.0000 0.44211  0.91448  0.31491  Biso   1.000  C
  H94      1.0000 0.39541  0.95649  0.41598  Biso   1.000  H
  C123     1.0000 0.40540  0.97669  0.34611  Biso   1.000  C
  C124     1.0000 0.47481  0.81712  0.75329  Biso   1.000  C
  H95      1.0000 0.44442  0.77819  0.70760  Biso   1.000  H
  C125     1.0000 0.51132  0.87659  0.71618  Biso   1.000  C
  C126     1.0000 0.49901  0.90910  0.62771  Biso   1.000  C
  H96      1.0000 0.48701  0.92902  0.55669  Biso   1.000  H
  H97      1.0000 0.60370  0.90920  0.40031  Biso   1.000  H
  C127     1.0000 0.63491  0.87262  0.28219  Biso   1.000  C
  C128     1.0000 0.59851  0.93539  0.31291  Biso   1.000  C
  C129     1.0000 0.64140  0.98669  0.29838  Biso   1.000  C
  C130     1.0000 0.59701  0.86413  0.52370  Biso   1.000  C
  H98      1.0000 0.59411  0.63292  0.38289  Biso   1.000  H
  C131     1.0000 0.64531  0.50271  0.40948  Biso   1.000  C
  C132     1.0000 0.59662  0.52079  0.37921  Biso   1.000  C
  C133     1.0000 0.63140  0.51102  0.31759  Biso   1.000  C
  C134     1.0000 0.57160  0.78862  0.38311  Biso   1.000  C
  H99      1.0000 0.46391  0.79990  0.33519  Biso   1.000  H
  C135     1.0000 0.42150  0.96319  0.30849  Biso   1.000  C
  C136     1.0000 0.46232  0.90731  0.27691  Biso   1.000  C
  H100     1.0000 0.39282  0.01128  0.34210  Biso   1.000  H
  C137     1.0000 0.49922  0.85332  0.75931  Biso   1.000  C
  H101     1.0000 0.46792  0.79952  0.78230  Biso   1.000  H
  C138     1.0000 0.53771  0.90731  0.72309  Biso   1.000  C
  H102     1.0000 0.51421  0.93799  0.63008  Biso   1.000  H
  H103     1.0000 0.65522  0.86521  0.28360  Biso   1.000  H
  H104     1.0000 0.62550  0.83440  0.29270  Biso   1.000  H
  H105     1.0000 0.62800  0.88338  0.24809  Biso   1.000  H
  H106     1.0000 0.59401  0.97022  0.33478  Biso   1.000  H
  H107     1.0000 0.59180  0.94573  0.27858  Biso   1.000  H
  H108     1.0000 0.58931  0.89679  0.32308  Biso   1.000  H
  H109     1.0000 0.66191  0.98301  0.29979  Biso   1.000  H
  H110     1.0000 0.63401  0.99519  0.26421  Biso   1.000  H
  H111     1.0000 0.63632  0.02152  0.31989  Biso   1.000  H
  C139     1.0000 0.57871  0.84879  0.56159  Biso   1.000  C
  H112     1.0000 0.64151  0.52088  0.44169  Biso   1.000  H
  H113     1.0000 0.64090  0.45750  0.40941  Biso   1.000  H
  H114     1.0000 0.66512  0.50852  0.40398  Biso   1.000  H
  H115     1.0000 0.59320  0.53599  0.41249  Biso   1.000  H
  H116     1.0000 0.58380  0.54222  0.35440  Biso   1.000  H
  H117     1.0000 0.59331  0.47520  0.37739  Biso   1.000  H
  H118     1.0000 0.61910  0.53429  0.29318  Biso   1.000  H
  H119     1.0000 0.65090  0.51701  0.31038  Biso   1.000  H
  H120     1.0000 0.62670  0.46600  0.31580  Biso   1.000  H
  C140     1.0000 0.54750  0.82802  0.38010  Biso   1.000  C
  C141     1.0000 0.41761  0.99302  0.26179  Biso   1.000  C
  C142     1.0000 0.45381  0.93143  0.22970  Biso   1.000  C
  C143     1.0000 0.48870  0.87659  0.28378  Biso   1.000  C
  C144     1.0000 0.51081  0.86630  0.80641  Biso   1.000  C
  C145     1.0000 0.55791  0.91448  0.68509  Biso   1.000  C
  C146     1.0000 0.54622  0.93143  0.77030  Biso   1.000  C
  C147     1.0000 0.56411  0.79192  0.55910  Biso   1.000  C
  C148     1.0000 0.57661  0.88881  0.60449  Biso   1.000  C
  C149     1.0000 0.53050  0.83440  0.33378  Biso   1.000  C
  C150     1.0000 0.54080  0.86271  0.42118  Biso   1.000  C
  C151     1.0000 0.43140  0.97541  0.22350  Biso   1.000  C
  H121     1.0000 0.40471  0.02690  0.25760  Biso   1.000  H
  C152     1.0000 0.46751  0.90948  0.18858  Biso   1.000  C
  C153     1.0000 0.50081  0.85332  0.24070  Biso   1.000  C
  C154     1.0000 0.50641  0.87220  0.33088  Biso   1.000  C
  C155     1.0000 0.53251  0.90948  0.81139  Biso   1.000  C
  H122     1.0000 0.50412  0.84629  0.83467  Biso   1.000  H
  C156     1.0000 0.55961  0.87239  0.64208  Biso   1.000  C
  C157     1.0000 0.57851  0.96319  0.69148  Biso   1.000  C
  C158     1.0000 0.56862  0.97541  0.77651  Biso   1.000  C
  H123     1.0000 0.56462  0.76521  0.53091  Biso   1.000  H
  C159     1.0000 0.54860  0.77479  0.59881  Biso   1.000  C
  C160     1.0000 0.59380  0.94332  0.61010  Biso   1.000  C
  C161     1.0000 0.53971  0.80518  0.29040  Biso   1.000  C
  C162     1.0000 0.51740  0.90410  0.41568  Biso   1.000  C
  H124     1.0000 0.55162  0.85889  0.45209  Biso   1.000  H
  H125     1.0000 0.42620  0.99240  0.19148  Biso   1.000  H
  H126     1.0000 0.46151  0.92482  0.15649  Biso   1.000  H
  C163     1.0000 0.48921  0.86630  0.19360  Biso   1.000  C
  C164     1.0000 0.52521  0.81712  0.24671  Biso   1.000  C
  C165     1.0000 0.50100  0.90910  0.37230  Biso   1.000  C
  H127     1.0000 0.53851  0.92482  0.84348  Biso   1.000  H
  C166     1.0000 0.54671  0.81349  0.63840  Biso   1.000  C
  C167     1.0000 0.59461  0.97669  0.65389  Biso   1.000  C
  C168     1.0000 0.58241  0.99302  0.73821  Biso   1.000  C
  H128     1.0000 0.57382  0.99240  0.80849  Biso   1.000  H
  H129     1.0000 0.53922  0.73529  0.59788  Biso   1.000  H
  H130     1.0000 0.60461  0.95649  0.58399  Biso   1.000  H
  H131     1.0000 0.55561  0.77819  0.29240  Biso   1.000  H
  H132     1.0000 0.51302  0.92902  0.44328  Biso   1.000  H
  H133     1.0000 0.49591  0.84629  0.16529  Biso   1.000  H
  H134     1.0000 0.53211  0.79952  0.21770  Biso   1.000  H
  H135     1.0000 0.48581  0.93799  0.36989  Biso   1.000  H
  H136     1.0000 0.53612  0.79990  0.66481  Biso   1.000  H
  H137     1.0000 0.60721  0.01128  0.65790  Biso   1.000  H
  H138     1.0000 0.59532  0.02690  0.74241  Biso   1.000  H
  O7       1.0000 0.42929  0.35330  0.57381  Biso   1.000  O
  C169     1.0000 0.41297  0.34221  0.61028  Biso   1.000  C
  C170     1.0000 0.42059  0.35971  0.65920  Biso   1.000  C
  C171     1.0000 0.38637  0.31049  0.59881  Biso   1.000  C
  C172     1.0000 0.44717  0.39440  0.67128  Biso   1.000  C
  C173     1.0000 0.40337  0.35032  0.69698  Biso   1.000  C
  C174     1.0000 0.36922  0.30270  0.63770  Biso   1.000  C
  C175     1.0000 0.37782  0.28812  0.54599  Biso   1.000  C
  N9       1.0000 0.46358  0.40889  0.63889  Biso   1.000  N
  H139     1.0000 0.45201  0.40620  0.70478  Biso   1.000  H
  C176     1.0000 0.37705  0.32158  0.68599  Biso   1.000  C
  H140     1.0000 0.40912  0.36302  0.72989  Biso   1.000  H
  H141     1.0000 0.35131  0.28359  0.63090  Biso   1.000  H
  C177     1.0000 0.37321  0.34499  0.51059  Biso   1.000  C
  C178     1.0000 0.40010  0.24310  0.52760  Biso   1.000  C
  C179     1.0000 0.34951  0.25211  0.54339  Biso   1.000  C
  C180     1.0000 0.48820  0.44608  0.65348  Biso   1.000  C
  C181     1.0000 0.35814  0.31899  0.72488  Biso   1.000  C
  H142     1.0000 0.36770  0.32979  0.47690  Biso   1.000  H
  H143     1.0000 0.35832  0.37189  0.52188  Biso   1.000  H
  H144     1.0000 0.39060  0.36939  0.51048  Biso   1.000  H
  H145     1.0000 0.39421  0.22932  0.49369  Biso   1.000  H
  H146     1.0000 0.41811  0.26500  0.52779  Biso   1.000  H
  H147     1.0000 0.40202  0.20619  0.54948  Biso   1.000  H
  H148     1.0000 0.34461  0.23838  0.50918  Biso   1.000  H
  H149     1.0000 0.35130  0.21521  0.56530  Biso   1.000  H
  H150     1.0000 0.33482  0.28010  0.55409  Biso   1.000  H
  C182     1.0000 0.51470  0.41012  0.64178  Biso   1.000  C
  H151     1.0000 0.48891  0.45519  0.68959  Biso   1.000  H
  H152     1.0000 0.48722  0.48690  0.63551  Biso   1.000  H
  C183     1.0000 0.34241  0.32149  0.75641  Biso   1.000  C
  N10      1.0000 0.52055  0.35778  0.67648  Biso   1.000  N
  H153     1.0000 0.51222  0.39351  0.60750  Biso   1.000  H
  H154     1.0000 0.53092  0.43938  0.64379  Biso   1.000  H
  C184     1.0000 0.32312  0.33310  0.79318  Biso   1.000  C
  C185     1.0000 0.53461  0.30572  0.65408  Biso   1.000  C
  C186     1.0000 0.53591  0.37982  0.72209  Biso   1.000  C
  C187     1.0000 0.31842  0.28798  0.82970  Biso   1.000  C
  C188     1.0000 0.30870  0.39138  0.79259  Biso   1.000  C
  C189     1.0000 0.51450  0.26231  0.62499  Biso   1.000  C
  H155     1.0000 0.54520  0.28118  0.68060  Biso   1.000  H
  H156     1.0000 0.54812  0.32271  0.63179  Biso   1.000  H
  H157     1.0000 0.53012  0.42352  0.72911  Biso   1.000  H
  H158     1.0000 0.55622  0.38001  0.71771  Biso   1.000  H
  C190     1.0000 0.53022  0.33749  0.76599  Biso   1.000  C
  H159     1.0000 0.32752  0.24810  0.82970  Biso   1.000  H
  C191     1.0000 0.30029  0.30252  0.86569  Biso   1.000  C
  C192     1.0000 0.28779  0.40261  0.82691  Biso   1.000  C
  C193     1.0000 0.31581  0.44098  0.76079  Biso   1.000  C
  N11      1.0000 0.49846  0.22578  0.65701  Biso   1.000  N
  H160     1.0000 0.50161  0.28760  0.60230  Biso   1.000  H
  H161     1.0000 0.52511  0.23361  0.60449  Biso   1.000  H
  H162     1.0000 0.53092  0.29260  0.75578  Biso   1.000  H
  H163     1.0000 0.54491  0.34428  0.79341  Biso   1.000  H
  N12      1.0000 0.50247  0.35202  0.78308  Biso   1.000  N
  H164     1.0000 0.29823  0.27368  0.89210  Biso   1.000  H
  C194     1.0000 0.28521  0.35778  0.86380  Biso   1.000  C
  C195     1.0000 0.27179  0.46132  0.82231  Biso   1.000  C
  H165     1.0000 0.32880  0.43301  0.73680  Biso   1.000  H
  C196     1.0000 0.30471  0.49922  0.76369  Biso   1.000  C
  C197     1.0000 0.47232  0.22672  0.65319  Biso   1.000  C
  C198     1.0000 0.48428  0.30841  0.78390  Biso   1.000  C
  H166     1.0000 0.27262  0.36561  0.88861  Biso   1.000  H
  C199     1.0000 0.28241  0.51031  0.79560  Biso   1.000  C
  C200     1.0000 0.24632  0.47218  0.84738  Biso   1.000  C
  H167     1.0000 0.31152  0.53282  0.74479  Biso   1.000  H
  C201     1.0000 0.45441  0.18849  0.68320  Biso   1.000  C
  H168     1.0000 0.46331  0.25409  0.62901  Biso   1.000  H
  H169     1.0000 0.48871  0.26769  0.77201  Biso   1.000  H
  C202     1.0000 0.45663  0.31880  0.80251  Biso   1.000  C
  C203     1.0000 0.27222  0.57369  0.80080  Biso   1.000  C
  C204     1.0000 0.23992  0.53589  0.85889  Biso   1.000  C
  C205     1.0000 0.22727  0.42319  0.86250  Biso   1.000  C
  C206     1.0000 0.42589  0.19142  0.67410  Biso   1.000  C
  C207     1.0000 0.46661  0.14890  0.71960  Biso   1.000  C
  C208     1.0000 0.44836  0.38001  0.81748  Biso   1.000  C
  C209     1.0000 0.43861  0.26731  0.80540  Biso   1.000  C
  C210     1.0000 0.25401  0.58681  0.83408  Biso   1.000  C
  H170     1.0000 0.27841  0.60640  0.78018  Biso   1.000  H
  C211     1.0000 0.22002  0.54901  0.89251  Biso   1.000  C
  C212     1.0000 0.22479  0.36028  0.84099  Biso   1.000  C
  C213     1.0000 0.21032  0.43881  0.90031  Biso   1.000  C
  C214     1.0000 0.40843  0.15480  0.70069  Biso   1.000  C
  H171     1.0000 0.41792  0.21898  0.64910  Biso   1.000  H
  C215     1.0000 0.44962  0.11001  0.74880  Biso   1.000  C
  O8       1.0000 0.49460  0.14668  0.72970  Biso   1.000  O
  O9       1.0000 0.46605  0.42819  0.81421  Biso   1.000  O
  C216     1.0000 0.42164  0.38879  0.83538  Biso   1.000  C
  C217     1.0000 0.41269  0.27462  0.82338  Biso   1.000  C
  H172     1.0000 0.44432  0.22691  0.79478  Biso   1.000  H
  H173     1.0000 0.25021  0.62952  0.84188  Biso   1.000  H
  H174     1.0000 0.21553  0.59172  0.89890  Biso   1.000  H
  C218     1.0000 0.20711  0.50342  0.91610  Biso   1.000  C
  C219     1.0000 0.21118  0.31280  0.86539  Biso   1.000  C
  C220     1.0000 0.23461  0.34612  0.79359  Biso   1.000  C
  C221     1.0000 0.19512  0.39049  0.92278  Biso   1.000  C
  C222     1.0000 0.37851  0.15631  0.68911  Biso   1.000  C
  C223     1.0000 0.42010  0.11530  0.73828  Biso   1.000  C
  C224     1.0000 0.46151  0.06692  0.78951  Biso   1.000  C
  C225     1.0000 0.40465  0.33612  0.83791  Biso   1.000  C
  C226     1.0000 0.41211  0.45491  0.85009  Biso   1.000  C
  C227     1.0000 0.39540  0.22162  0.83040  Biso   1.000  C
  H175     1.0000 0.19612  0.51319  0.94280  Biso   1.000  H
  C228     1.0000 0.21071  0.24961  0.84678  Biso   1.000  C
  C229     1.0000 0.19641  0.32772  0.90848  Biso   1.000  C
  C230     1.0000 0.23359  0.28510  0.77599  Biso   1.000  C
  H176     1.0000 0.24182  0.37878  0.77428  Biso   1.000  H
  H177     1.0000 0.18363  0.40148  0.94860  Biso   1.000  H
  C231     1.0000 0.35429  0.15659  0.67718  Biso   1.000  C
  H178     1.0000 0.40802  0.09142  0.75730  Biso   1.000  H
  C232     1.0000 0.47822  0.01298  0.76380  Biso   1.000  C
  C233     1.0000 0.43861  0.03171  0.81551  Biso   1.000  C
  C234     1.0000 0.47932  0.10482  0.83070  Biso   1.000  C
  H179     1.0000 0.38663  0.34140  0.84979  Biso   1.000  H
  C235     1.0000 0.38231  0.44971  0.86758  Biso   1.000  C
  C236     1.0000 0.41251  0.49960  0.80708  Biso   1.000  C
  C237     1.0000 0.43041  0.47831  0.89619  Biso   1.000  C
  C238     1.0000 0.38232  0.17382  0.83791  Biso   1.000  C
  C239     1.0000 0.19791  0.20048  0.87349  Biso   1.000  C
  C240     1.0000 0.22238  0.23772  0.80288  Biso   1.000  C
  H180     1.0000 0.18791  0.29548  0.92650  Biso   1.000  H
  H181     1.0000 0.24071  0.27580  0.74490  Biso   1.000  H
  C241     1.0000 0.32510  0.15399  0.65831  Biso   1.000  C
  H182     1.0000 0.49331  0.03190  0.74620  Biso   1.000  H
  H183     1.0000 0.48631  0.98372  0.78910  Biso   1.000  H
  H184     1.0000 0.46542  0.98990  0.73999  Biso   1.000  H
  H185     1.0000 0.44741  0.00439  0.84158  Biso   1.000  H
  H186     1.0000 0.42643  0.06230  0.83029  Biso   1.000  H
  H187     1.0000 0.42742  0.00590  0.79118  Biso   1.000  H
  H188     1.0000 0.48672  0.07579  0.85678  Biso   1.000  H
  H189     1.0000 0.49492  0.12591  0.81599  Biso   1.000  H
  H190     1.0000 0.46741  0.13649  0.84508  Biso   1.000  H
  H191     1.0000 0.38243  0.42041  0.89570  Biso   1.000  H
  H192     1.0000 0.37601  0.49139  0.87799  Biso   1.000  H
  H193     1.0000 0.36942  0.43409  0.84028  Biso   1.000  H
  H194     1.0000 0.40632  0.54141  0.81718  Biso   1.000  H
  H195     1.0000 0.43162  0.50238  0.79660  Biso   1.000  H
  H196     1.0000 0.39981  0.48412  0.77940  Biso   1.000  H
  H197     1.0000 0.42951  0.44778  0.92319  Biso   1.000  H
  H198     1.0000 0.44992  0.48280  0.88790  Biso   1.000  H
  H199     1.0000 0.42343  0.51928  0.90670  Biso   1.000  H
  C242     1.0000 0.36770  0.11652  0.84508  Biso   1.000  C
  C243     1.0000 0.18661  0.16140  0.89659  Biso   1.000  C
  H200     1.0000 0.22271  0.19562  0.79088  Biso   1.000  H
  C244     1.0000 0.31678  0.11251  0.61801  Biso   1.000  C
  C245     1.0000 0.30532  0.19180  0.67930  Biso   1.000  C
  C246     1.0000 0.34741  0.09571  0.81109  Biso   1.000  C
  C247     1.0000 0.37475  0.07971  0.88779  Biso   1.000  C
  C248     1.0000 0.17141  0.11558  0.92371  Biso   1.000  C
  C249     1.0000 0.33721  0.07900  0.59179  Biso   1.000  C
  C250     1.0000 0.28811  0.10732  0.60141  Biso   1.000  C
  C251     1.0000 0.27810  0.19010  0.65891  Biso   1.000  C
  H201     1.0000 0.31061  0.21799  0.70701  Biso   1.000  H
  H202     1.0000 0.34201  0.12101  0.78290  Biso   1.000  H
  C252     1.0000 0.33421  0.03709  0.81681  Biso   1.000  C
  C253     1.0000 0.36058  0.02322  0.89671  Biso   1.000  C
  C254     1.0000 0.39731  0.09722  0.92319  Biso   1.000  C
  C255     1.0000 0.14212  0.11912  0.92100  Biso   1.000  C
  C256     1.0000 0.18512  0.07249  0.95480  Biso   1.000  C
  C257     1.0000 0.32971  0.04502  0.55200  Biso   1.000  C
  H203     1.0000 0.35651  0.08141  0.60330  Biso   1.000  H
  C258     1.0000 0.27970  0.06050  0.56371  Biso   1.000  C
  C259     1.0000 0.26924  0.14961  0.62139  Biso   1.000  C
  H204     1.0000 0.26491  0.21832  0.67128  Biso   1.000  H
  H205     1.0000 0.32052  0.02251  0.79211  Biso   1.000  H
  C260     1.0000 0.34096  0.00198  0.85711  Biso   1.000  C
  C261     1.0000 0.36738  0.98792  0.94187  Biso   1.000  C
  H206     1.0000 0.40642  0.13630  0.91881  Biso   1.000  H
  C262     1.0000 0.40593  0.06239  0.96130  Biso   1.000  C
  C263     1.0000 0.12743  0.07679  0.95049  Biso   1.000  C
  H207     1.0000 0.13232  0.14909  0.89997  Biso   1.000  H
  C264     1.0000 0.17242  0.02921  0.98440  Biso   1.000  C
  H208     1.0000 0.20501  0.07230  0.95629  Biso   1.000  H
  C265     1.0000 0.30081  0.03601  0.53540  Biso   1.000  C
  H209     1.0000 0.34370  0.02610  0.53388  Biso   1.000  H
  C266     1.0000 0.25091  0.04148  0.55141  Biso   1.000  C
  H210     1.0000 0.25012  0.14998  0.60869  Biso   1.000  H
  H211     1.0000 0.33253  0.96173  0.85971  Biso   1.000  H
  C267     1.0000 0.39191  0.00208  0.97129  Biso   1.000  C
  C268     1.0000 0.35032  0.93218  0.95658  Biso   1.000  C
  H212     1.0000 0.42142  0.07598  0.98281  Biso   1.000  H
  C269     1.0000 0.09702  0.08641  0.94860  Biso   1.000  C
  C270     1.0000 0.14212  0.03379  0.98210  Biso   1.000  C
  C271     1.0000 0.18801  0.98561  0.02051  Biso   1.000  C
  C272     1.0000 0.29272  0.00269  0.49009  Biso   1.000  C
  C273     1.0000 0.24370  0.01770  0.50279  Biso   1.000  C
  C274     1.0000 0.22831  0.04550  0.58488  Biso   1.000  C
  C275     1.0000 0.40361  0.96078  0.00669  Biso   1.000  C
  C276     1.0000 0.36491  0.88772  0.98619  Biso   1.000  C
  C277     1.0000 0.32181  0.92189  0.94340  Biso   1.000  C
  N13      1.0000 0.08253  0.05102  0.97690  Biso   1.000  N
  H213     1.0000 0.08803  0.11742  0.92739  Biso   1.000  H
  O10      1.0000 0.12777  0.99561  0.01081  Biso   1.000  O
  C278     1.0000 0.21940  0.98919  0.01642  Biso   1.000  C
  C279     1.0000 0.17831  0.91642  0.01130  Biso   1.000  C
  C280     1.0000 0.18320  0.00708  0.07370  Biso   1.000  C
  C281     1.0000 0.26590  0.99840  0.47341  Biso   1.000  C
  H214     1.0000 0.30671  0.98362  0.47188  Biso   1.000  H
  C282     1.0000 0.21521  0.01491  0.48500  Biso   1.000  C
  C283     1.0000 0.20112  0.04861  0.56311  Biso   1.000  C
  C284     1.0000 0.23263  0.04318  0.63840  Biso   1.000  C
  C285     1.0000 0.39201  0.90179  0.01182  Biso   1.000  C
  H215     1.0000 0.41971  0.97300  0.02749  Biso   1.000  H
  C286     1.0000 0.35383  0.82420  0.99168  Biso   1.000  C
  C287     1.0000 0.30095  0.97183  0.93118  Biso   1.000  C
  C288     1.0000 0.31082  0.86002  0.94499  Biso   1.000  C
  C289     1.0000 0.05222  0.05739  0.97430  Biso   1.000  C
  H216     1.0000 0.22353  0.97730  0.98270  Biso   1.000  H
  H217     1.0000 0.22900  0.96031  0.04042  Biso   1.000  H
  H218     1.0000 0.22590  0.03242  0.02329  Biso   1.000  H
  H219     1.0000 0.18202  0.90382  0.97750  Biso   1.000  H
  H220     1.0000 0.18871  0.88853  0.03522  Biso   1.000  H
  H221     1.0000 0.15821  0.91302  0.01531  Biso   1.000  H
  H222     1.0000 0.19331  0.97890  0.09770  Biso   1.000  H
  H223     1.0000 0.19021  0.05031  0.07879  Biso   1.000  H
  H224     1.0000 0.16310  0.00590  0.07849  Biso   1.000  H
  H225     1.0000 0.26132  0.98192  0.44109  Biso   1.000  H
  C290     1.0000 0.19451  0.03351  0.51219  Biso   1.000  C
  H226     1.0000 0.21050  0.99920  0.45238  Biso   1.000  H
  C291     1.0000 0.17841  0.06551  0.59331  Biso   1.000  C
  C292     1.0000 0.20998  0.05980  0.66749  Biso   1.000  C
  C293     1.0000 0.25712  0.02058  0.66329  Biso   1.000  C
  H227     1.0000 0.40160  0.87069  0.03191  Biso   1.000  H
  C294     1.0000 0.32882  0.81250  0.96958  Biso   1.000  C
  H228     1.0000 0.36411  0.79272  0.01041  Biso   1.000  H
  C295     1.0000 0.27399  0.95540  0.91030  Biso   1.000  C
  C296     1.0000 0.30642  0.03662  0.94258  Biso   1.000  C
  C297     1.0000 0.28462  0.84549  0.92560  Biso   1.000  C
  C298     1.0000 0.03782  0.99858  0.96130  Biso   1.000  C
  H229     1.0000 0.04632  0.08981  0.94919  Biso   1.000  H
  H230     1.0000 0.04661  0.07211  0.00691  Biso   1.000  H
  H231     1.0000 0.17581  0.03662  0.49770  Biso   1.000  H
  H232     1.0000 0.16001  0.07070  0.57778  Biso   1.000  H
  C299     1.0000 0.18281  0.07381  0.64208  Biso   1.000  C
  C300     1.0000 0.21384  0.06069  0.71971  Biso   1.000  C
  H233     1.0000 0.27181  0.00571  0.64479  Biso   1.000  H
  C301     1.0000 0.26052  0.01940  0.71388  Biso   1.000  C
  H234     1.0000 0.32211  0.77031  0.96981  Biso   1.000  H
  C302     1.0000 0.25436  0.00439  0.89570  Biso   1.000  C
  C303     1.0000 0.26612  0.88952  0.90648  Biso   1.000  C
  C304     1.0000 0.28691  0.08311  0.92728  Biso   1.000  C
  H235     1.0000 0.32352  0.04819  0.96078  Biso   1.000  H
  H236     1.0000 0.27902  0.80249  0.92531  Biso   1.000  H
  N14      1.0000 0.04065  0.97961  0.91000  Biso   1.000  N
  H237     1.0000 0.01771  0.00340  0.96639  Biso   1.000  H
  H238     1.0000 0.04552  0.96489  0.98381  Biso   1.000  H
  H239     1.0000 0.16801  0.08891  0.66050  Biso   1.000  H
  C305     1.0000 0.23942  0.04082  0.74319  Biso   1.000  C
  C306     1.0000 0.19142  0.07981  0.74750  Biso   1.000  C
  H240     1.0000 0.27751  0.00359  0.72978  Biso   1.000  H
  C307     1.0000 0.22761  0.98598  0.87219  Biso   1.000  C
  C308     1.0000 0.26122  0.06541  0.90321  Biso   1.000  C
  H241     1.0000 0.24831  0.87720  0.89099  Biso   1.000  H
  H242     1.0000 0.29111  0.12639  0.93329  Biso   1.000  H
  C309     1.0000 0.01981  0.01251  0.87680  Biso   1.000  C
  C310     1.0000 0.03842  0.91061  0.90510  Biso   1.000  C
  H243     1.0000 0.24251  0.04181  0.77840  Biso   1.000  H
  C311     1.0000 0.17041  0.09708  0.76640  Biso   1.000  C
  C312     1.0000 0.20492  0.96989  0.85429  Biso   1.000  C
  H244     1.0000 0.24832  0.09722  0.89180  Biso   1.000  H
  C313     1.0000 0.02882  0.01831  0.82528  Biso   1.000  C
  H245     1.0000 0.01662  0.05522  0.89009  Biso   1.000  H
  H246     1.0000 0.00182  0.98929  0.87568  Biso   1.000  H
  C314     1.0000 0.06592  0.87720  0.91628  Biso   1.000  C
  H247     1.0000 0.03102  0.90009  0.87078  Biso   1.000  H
  H248     1.0000 0.02491  0.89480  0.92798  Biso   1.000  H
  C315     1.0000 0.14471  0.11619  0.78468  Biso   1.000  C
  C316     1.0000 0.17761  0.94743  0.83638  Biso   1.000  C
  N15      1.0000 0.05126  0.06499  0.82260  Biso   1.000  N
  H249     1.0000 0.01252  0.03082  0.80251  Biso   1.000  H
  H250     1.0000 0.03552  0.97669  0.81439  Biso   1.000  H
  H251     1.0000 0.07493  0.89282  0.94830  Biso   1.000  H
  H252     1.0000 0.06242  0.83152  0.91981  Biso   1.000  H
  N16      1.0000 0.08532  0.88711  0.87709  Biso   1.000  N
  C317     1.0000 0.13952  0.18118  0.79110  Biso   1.000  C
  C318     1.0000 0.12363  0.07381  0.79188  Biso   1.000  C
  C319     1.0000 0.15662  0.93940  0.86840  Biso   1.000  C
  C320     1.0000 0.17151  0.92982  0.78598  Biso   1.000  C
  C321     1.0000 0.07511  0.04922  0.81198  Biso   1.000  C
  C322     1.0000 0.11013  0.90840  0.88839  Biso   1.000  C
  H253     1.0000 0.15412  0.21011  0.78561  Biso   1.000  H
  C323     1.0000 0.11452  0.20501  0.80500  Biso   1.000  C
  C324     1.0000 0.09782  0.09458  0.80648  Biso   1.000  C
  H254     1.0000 0.12661  0.03002  0.78680  Biso   1.000  H
  C325     1.0000 0.13021  0.91571  0.85191  Biso   1.000  C
  H255     1.0000 0.16022  0.95021  0.90239  Biso   1.000  H
  C326     1.0000 0.14622  0.90561  0.76841  Biso   1.000  C
  H256     1.0000 0.18561  0.93511  0.76358  Biso   1.000  H
  H257     1.0000 0.07883  0.00571  0.80719  Biso   1.000  H
  H258     1.0000 0.11542  0.91958  0.92189  Biso   1.000  H
  C327     1.0000 0.09331  0.16122  0.81350  Biso   1.000  C
  C328     1.0000 0.11021  0.27651  0.80860  Biso   1.000  C
  C329     1.0000 0.12482  0.90089  0.80258  Biso   1.000  C
  C330     1.0000 0.13942  0.89141  0.71128  Biso   1.000  C
  O11      1.0000 0.06803  0.18042  0.82721  Biso   1.000  O
  C331     1.0000 0.08661  0.29511  0.77071  Biso   1.000  C
  C332     1.0000 0.10101  0.29180  0.86220  Biso   1.000  C
  C333     1.0000 0.13621  0.31361  0.80098  Biso   1.000  C
  O12      1.0000 0.09901  0.87871  0.78668  Biso   1.000  O
  C334     1.0000 0.16672  0.89749  0.68309  Biso   1.000  C
  C335     1.0000 0.11751  0.93718  0.69041  Biso   1.000  C
  C336     1.0000 0.12991  0.82161  0.70601  Biso   1.000  C
  H259     1.0000 0.06982  0.27042  0.77621  Biso   1.000  H
  H260     1.0000 0.08252  0.34022  0.77409  Biso   1.000  H
  H261     1.0000 0.09211  0.28680  0.73721  Biso   1.000  H
  H262     1.0000 0.08402  0.26802  0.86788  Biso   1.000  H
  H263     1.0000 0.11611  0.28000  0.88709  Biso   1.000  H
  H264     1.0000 0.09721  0.33711  0.86469  Biso   1.000  H
  H265     1.0000 0.15122  0.30091  0.82580  Biso   1.000  H
  H266     1.0000 0.14201  0.30530  0.76759  Biso   1.000  H
  H267     1.0000 0.13232  0.35872  0.80459  Biso   1.000  H
  H268     1.0000 0.18081  0.86753  0.69698  Biso   1.000  H
  H269     1.0000 0.16222  0.88829  0.64780  Biso   1.000  H
  H270     1.0000 0.17401  0.94058  0.68680  Biso   1.000  H
  H271     1.0000 0.12451  0.98041  0.69468  Biso   1.000  H
  H272     1.0000 0.11312  0.92860  0.65490  Biso   1.000  H
  H273     1.0000 0.10041  0.93232  0.70790  Biso   1.000  H
  H274     1.0000 0.14490  0.79400  0.72020  Biso   1.000  H
  H275     1.0000 0.11312  0.81519  0.72380  Biso   1.000  H
  H276     1.0000 0.12572  0.81151  0.67079  Biso   1.000  H
  C337     1.0000 0.48530  0.41012  0.35818  Biso   1.000  C
  N17      1.0000 0.47947  0.35778  0.32349  Biso   1.000  N
  H277     1.0000 0.48781  0.39351  0.39251  Biso   1.000  H
  H278     1.0000 0.46911  0.43938  0.35618  Biso   1.000  H
  C338     1.0000 0.51180  0.44608  0.34648  Biso   1.000  C
  C339     1.0000 0.46540  0.30572  0.34589  Biso   1.000  C
  C340     1.0000 0.46410  0.37982  0.27792  Biso   1.000  C
  H279     1.0000 0.51110  0.45519  0.31038  Biso   1.000  H
  H280     1.0000 0.51281  0.48690  0.36450  Biso   1.000  H
  N18      1.0000 0.53643  0.40889  0.36108  Biso   1.000  N
  H281     1.0000 0.45480  0.28118  0.31941  Biso   1.000  H
  H282     1.0000 0.45190  0.32271  0.36821  Biso   1.000  H
  C341     1.0000 0.48550  0.26231  0.37501  Biso   1.000  C
  H283     1.0000 0.46990  0.42352  0.27090  Biso   1.000  H
  H284     1.0000 0.44381  0.38001  0.28230  Biso   1.000  H
  C342     1.0000 0.46981  0.33749  0.23401  Biso   1.000  C
  C343     1.0000 0.55283  0.39440  0.32869  Biso   1.000  C
  H285     1.0000 0.49841  0.28760  0.39771  Biso   1.000  H
  H286     1.0000 0.47492  0.23361  0.39552  Biso   1.000  H
  N19      1.0000 0.50156  0.22578  0.34299  Biso   1.000  N
  H287     1.0000 0.46910  0.29260  0.24419  Biso   1.000  H
  H288     1.0000 0.45510  0.34428  0.20660  Biso   1.000  H
  N20      1.0000 0.49755  0.35202  0.21689  Biso   1.000  N
  H289     1.0000 0.54800  0.40620  0.29519  Biso   1.000  H
  C344     1.0000 0.57943  0.35971  0.34080  Biso   1.000  C
  C345     1.0000 0.52771  0.22672  0.34678  Biso   1.000  C
  C346     1.0000 0.51573  0.30841  0.21611  Biso   1.000  C
  C347     1.0000 0.58706  0.34221  0.38968  Biso   1.000  C
  C348     1.0000 0.59665  0.35032  0.30299  Biso   1.000  C
  H290     1.0000 0.53671  0.25409  0.37100  Biso   1.000  H
  C349     1.0000 0.54560  0.18849  0.31681  Biso   1.000  C
  H291     1.0000 0.51131  0.26769  0.22799  Biso   1.000  H
  C350     1.0000 0.54340  0.31880  0.19750  Biso   1.000  C
  O13      1.0000 0.57072  0.35330  0.42620  Biso   1.000  O
  C351     1.0000 0.61366  0.31049  0.40120  Biso   1.000  C
  C352     1.0000 0.62296  0.32158  0.31398  Biso   1.000  C
  H292     1.0000 0.59091  0.36302  0.27012  Biso   1.000  H
  C353     1.0000 0.53340  0.14890  0.28040  Biso   1.000  C
  C354     1.0000 0.57413  0.19142  0.32591  Biso   1.000  C
  C355     1.0000 0.55164  0.38001  0.18249  Biso   1.000  C
  C356     1.0000 0.56140  0.26731  0.19460  Biso   1.000  C
  C357     1.0000 0.63081  0.30270  0.36231  Biso   1.000  C
  C358     1.0000 0.62221  0.28812  0.45398  Biso   1.000  C
  C359     1.0000 0.64188  0.31899  0.27509  Biso   1.000  C
  O14      1.0000 0.50542  0.14668  0.27030  Biso   1.000  O
  C360     1.0000 0.55041  0.11001  0.25121  Biso   1.000  C
  C361     1.0000 0.59159  0.15480  0.29931  Biso   1.000  C
  H293     1.0000 0.58211  0.21898  0.35090  Biso   1.000  H
  O15      1.0000 0.53398  0.42819  0.18580  Biso   1.000  O
  C362     1.0000 0.57836  0.38879  0.16459  Biso   1.000  C
  C363     1.0000 0.58732  0.27462  0.17659  Biso   1.000  C
  H294     1.0000 0.55571  0.22691  0.20519  Biso   1.000  H
  H295     1.0000 0.64870  0.28359  0.36911  Biso   1.000  H
  C364     1.0000 0.62681  0.34499  0.48938  Biso   1.000  C
  C365     1.0000 0.59990  0.24310  0.47240  Biso   1.000  C
  C366     1.0000 0.65051  0.25211  0.45658  Biso   1.000  C
  C367     1.0000 0.65759  0.32149  0.24359  Biso   1.000  C
  C368     1.0000 0.57993  0.11530  0.26168  Biso   1.000  C
  C369     1.0000 0.53851  0.06692  0.21050  Biso   1.000  C
  C370     1.0000 0.62150  0.15631  0.31090  Biso   1.000  C
  C371     1.0000 0.59535  0.33612  0.16210  Biso   1.000  C
  C372     1.0000 0.58790  0.45491  0.14992  Biso   1.000  C
  C373     1.0000 0.60462  0.22162  0.16960  Biso   1.000  C
  H296     1.0000 0.63230  0.32979  0.52311  Biso   1.000  H
  H297     1.0000 0.64171  0.37189  0.47809  Biso   1.000  H
  H298     1.0000 0.60940  0.36939  0.48949  Biso   1.000  H
  H299     1.0000 0.60582  0.22932  0.50628  Biso   1.000  H
  H300     1.0000 0.58191  0.26500  0.47218  Biso   1.000  H
  H301     1.0000 0.59801  0.20619  0.45049  Biso   1.000  H
  H302     1.0000 0.65542  0.23838  0.49079  Biso   1.000  H
  H303     1.0000 0.64870  0.21521  0.43470  Biso   1.000  H
  H304     1.0000 0.66521  0.28010  0.44588  Biso   1.000  H
  C374     1.0000 0.67691  0.33310  0.20678  Biso   1.000  C
  H305     1.0000 0.59200  0.09142  0.24270  Biso   1.000  H
  C375     1.0000 0.52181  0.01298  0.23620  Biso   1.000  C
  C376     1.0000 0.56139  0.03171  0.18450  Biso   1.000  C
  C377     1.0000 0.52070  0.10482  0.16930  Biso   1.000  C
  C378     1.0000 0.64573  0.15659  0.32279  Biso   1.000  C
  H306     1.0000 0.61340  0.34140  0.15021  Biso   1.000  H
  C379     1.0000 0.61771  0.44971  0.13238  Biso   1.000  C
  C380     1.0000 0.58750  0.49960  0.19289  Biso   1.000  C
  C381     1.0000 0.56959  0.47831  0.10378  Biso   1.000  C
  C382     1.0000 0.61771  0.17382  0.16210  Biso   1.000  C
  C383     1.0000 0.68160  0.28798  0.17031  Biso   1.000  C
  C384     1.0000 0.69132  0.39138  0.20742  Biso   1.000  C
  H307     1.0000 0.50670  0.03190  0.25381  Biso   1.000  H
  H308     1.0000 0.51371  0.98372  0.21091  Biso   1.000  H
  H309     1.0000 0.53460  0.98990  0.26001  Biso   1.000  H
  H310     1.0000 0.55259  0.00439  0.15838  Biso   1.000  H
  H311     1.0000 0.57360  0.06230  0.16971  Biso   1.000  H
  H312     1.0000 0.57260  0.00590  0.20879  Biso   1.000  H
  H313     1.0000 0.51330  0.07579  0.14319  Biso   1.000  H
  H314     1.0000 0.50511  0.12591  0.18401  Biso   1.000  H
  H315     1.0000 0.53261  0.13649  0.15489  Biso   1.000  H
  C385     1.0000 0.67493  0.15399  0.34169  Biso   1.000  C
  H316     1.0000 0.61760  0.42041  0.10430  Biso   1.000  H
  H317     1.0000 0.62401  0.49139  0.12198  Biso   1.000  H
  H318     1.0000 0.63060  0.43409  0.15968  Biso   1.000  H
  H319     1.0000 0.59370  0.54141  0.18279  Biso   1.000  H
  H320     1.0000 0.56840  0.50238  0.20340  Biso   1.000  H
  H321     1.0000 0.60020  0.48412  0.22060  Biso   1.000  H
  H322     1.0000 0.57049  0.44778  0.07681  Biso   1.000  H
  H323     1.0000 0.55011  0.48280  0.11210  Biso   1.000  H
  H324     1.0000 0.57660  0.51928  0.09331  Biso   1.000  H
  C386     1.0000 0.63233  0.11652  0.15489  Biso   1.000  C
  H325     1.0000 0.67251  0.24810  0.17031  Biso   1.000  H
  C387     1.0000 0.69974  0.30252  0.13431  Biso   1.000  C
  C388     1.0000 0.71221  0.40261  0.17309  Biso   1.000  C
  C389     1.0000 0.68420  0.44098  0.23921  Biso   1.000  C
  C390     1.0000 0.69471  0.19180  0.32071  Biso   1.000  C
  C391     1.0000 0.68324  0.11251  0.38199  Biso   1.000  C
  C392     1.0000 0.65261  0.09571  0.18888  Biso   1.000  C
  C393     1.0000 0.62528  0.07971  0.11221  Biso   1.000  C
  H326     1.0000 0.70180  0.27368  0.10790  Biso   1.000  H
  C394     1.0000 0.71480  0.35778  0.13621  Biso   1.000  C
  C395     1.0000 0.72823  0.46132  0.17770  Biso   1.000  C
  H327     1.0000 0.67120  0.43301  0.26321  Biso   1.000  H
  C396     1.0000 0.69530  0.49922  0.23631  Biso   1.000  C
  H328     1.0000 0.68941  0.21799  0.29300  Biso   1.000  H
  C397     1.0000 0.72190  0.19010  0.34110  Biso   1.000  C
  C398     1.0000 0.71192  0.10732  0.39860  Biso   1.000  C
  C399     1.0000 0.66280  0.07900  0.40818  Biso   1.000  C
  H329     1.0000 0.65800  0.12101  0.21711  Biso   1.000  H
  C400     1.0000 0.66580  0.03709  0.18320  Biso   1.000  C
  C401     1.0000 0.63945  0.02322  0.10330  Biso   1.000  C
  C402     1.0000 0.60269  0.09722  0.07681  Biso   1.000  C
  H330     1.0000 0.72741  0.36561  0.11140  Biso   1.000  H
  C403     1.0000 0.71759  0.51031  0.20441  Biso   1.000  C
  C404     1.0000 0.75370  0.47218  0.15259  Biso   1.000  C
  H331     1.0000 0.68850  0.53282  0.25518  Biso   1.000  H
  H332     1.0000 0.73512  0.21832  0.32869  Biso   1.000  H
  C405     1.0000 0.73078  0.14961  0.37861  Biso   1.000  C
  C406     1.0000 0.72032  0.06050  0.43630  Biso   1.000  C
  H333     1.0000 0.64352  0.08141  0.39670  Biso   1.000  H
  C407     1.0000 0.67030  0.04502  0.44800  Biso   1.000  C
  H334     1.0000 0.67951  0.02251  0.20790  Biso   1.000  H
  C408     1.0000 0.65905  0.00198  0.14290  Biso   1.000  C
  C409     1.0000 0.63264  0.98792  0.05809  Biso   1.000  C
  H335     1.0000 0.59361  0.13630  0.08120  Biso   1.000  H
  C410     1.0000 0.59410  0.06239  0.03870  Biso   1.000  C
  C411     1.0000 0.72781  0.57369  0.19921  Biso   1.000  C
  C412     1.0000 0.76010  0.53589  0.14111  Biso   1.000  C
  C413     1.0000 0.77273  0.42319  0.13751  Biso   1.000  C
  H336     1.0000 0.74991  0.14998  0.39128  Biso   1.000  H
  C414     1.0000 0.69920  0.03601  0.46460  Biso   1.000  C
  C415     1.0000 0.74909  0.04148  0.44859  Biso   1.000  C
  H337     1.0000 0.65630  0.02610  0.46609  Biso   1.000  H
  H338     1.0000 0.66750  0.96173  0.14029  Biso   1.000  H
  C416     1.0000 0.60809  0.00208  0.02871  Biso   1.000  C
  C417     1.0000 0.64970  0.93218  0.04338  Biso   1.000  C
  H339     1.0000 0.57861  0.07598  0.01720  Biso   1.000  H
  C418     1.0000 0.74601  0.58681  0.16589  Biso   1.000  C
  H340     1.0000 0.72160  0.60640  0.21978  Biso   1.000  H
  C419     1.0000 0.78000  0.54901  0.10750  Biso   1.000  C
  C420     1.0000 0.78970  0.43881  0.09970  Biso   1.000  C
  C421     1.0000 0.77524  0.36028  0.15902  Biso   1.000  C
  C422     1.0000 0.70731  0.00269  0.50988  Biso   1.000  C
  C423     1.0000 0.75630  0.01770  0.49718  Biso   1.000  C
  C424     1.0000 0.77171  0.04550  0.41509  Biso   1.000  C
  C425     1.0000 0.59642  0.96078  0.99328  Biso   1.000  C
  C426     1.0000 0.63510  0.88772  0.01382  Biso   1.000  C
  C427     1.0000 0.67820  0.92189  0.05661  Biso   1.000  C
  H341     1.0000 0.74979  0.62952  0.15809  Biso   1.000  H
  H342     1.0000 0.78450  0.59172  0.10111  Biso   1.000  H
  C428     1.0000 0.79289  0.50342  0.08391  Biso   1.000  C
  C429     1.0000 0.80490  0.39049  0.07719  Biso   1.000  C
  C430     1.0000 0.78885  0.31280  0.13461  Biso   1.000  C
  C431     1.0000 0.76542  0.34612  0.20641  Biso   1.000  C
  C432     1.0000 0.73410  0.99840  0.52660  Biso   1.000  C
  H343     1.0000 0.69331  0.98362  0.52808  Biso   1.000  H
  C433     1.0000 0.78482  0.01491  0.51501  Biso   1.000  C
  C434     1.0000 0.79891  0.04861  0.43689  Biso   1.000  C
  C435     1.0000 0.76737  0.04318  0.36160  Biso   1.000  C
  C436     1.0000 0.60802  0.90179  0.98819  Biso   1.000  C
  H344     1.0000 0.58031  0.97300  0.97248  Biso   1.000  H
  C437     1.0000 0.64620  0.82420  0.00828  Biso   1.000  C
  C438     1.0000 0.68921  0.86002  0.05501  Biso   1.000  C
  C439     1.0000 0.69905  0.97183  0.06879  Biso   1.000  C
  H345     1.0000 0.80391  0.51319  0.05720  Biso   1.000  H
  H346     1.0000 0.81640  0.40148  0.05141  Biso   1.000  H
  C440     1.0000 0.80361  0.32772  0.09149  Biso   1.000  C
  C441     1.0000 0.78932  0.24961  0.15318  Biso   1.000  C
  H347     1.0000 0.75821  0.37878  0.22569  Biso   1.000  H
  C442     1.0000 0.76643  0.28510  0.22398  Biso   1.000  C
  H348     1.0000 0.73871  0.98192  0.55891  Biso   1.000  H
  C443     1.0000 0.80551  0.03351  0.48778  Biso   1.000  C
  H349     1.0000 0.78951  0.99920  0.54758  Biso   1.000  H
  C444     1.0000 0.82162  0.06551  0.40670  Biso   1.000  C
  C445     1.0000 0.79005  0.05980  0.33248  Biso   1.000  C
  C446     1.0000 0.74290  0.02058  0.33672  Biso   1.000  C
  H350     1.0000 0.59841  0.87069  0.96809  Biso   1.000  H
  H351     1.0000 0.63592  0.79272  0.98960  Biso   1.000  H
  C447     1.0000 0.67121  0.81250  0.03038  Biso   1.000  C
  C448     1.0000 0.71541  0.84549  0.07440  Biso   1.000  C
  C449     1.0000 0.69360  0.03662  0.05739  Biso   1.000  C
  C450     1.0000 0.72604  0.95540  0.08970  Biso   1.000  C
  H352     1.0000 0.81210  0.29548  0.07351  Biso   1.000  H
  C451     1.0000 0.77763  0.23772  0.19709  Biso   1.000  C
  C452     1.0000 0.80211  0.20048  0.12651  Biso   1.000  C
  H353     1.0000 0.75930  0.27580  0.25511  Biso   1.000  H
  H354     1.0000 0.82422  0.03662  0.50231  Biso   1.000  H
  H355     1.0000 0.84001  0.07070  0.42218  Biso   1.000  H
  C453     1.0000 0.81720  0.07381  0.35789  Biso   1.000  C
  C454     1.0000 0.78619  0.06069  0.28029  Biso   1.000  C
  H356     1.0000 0.72821  0.00571  0.35521  Biso   1.000  H
  C455     1.0000 0.73951  0.01940  0.28609  Biso   1.000  C
  H357     1.0000 0.67789  0.77031  0.03020  Biso   1.000  H
  H358     1.0000 0.72101  0.80249  0.07470  Biso   1.000  H
  C456     1.0000 0.73391  0.88952  0.09349  Biso   1.000  C
  H359     1.0000 0.67650  0.04819  0.03919  Biso   1.000  H
  C457     1.0000 0.71310  0.08311  0.07269  Biso   1.000  C
  C458     1.0000 0.74567  0.00439  0.10430  Biso   1.000  C
  H360     1.0000 0.77729  0.19562  0.20909  Biso   1.000  H
  C459     1.0000 0.81340  0.16140  0.10341  Biso   1.000  C
  H361     1.0000 0.83200  0.08891  0.33950  Biso   1.000  H
  C460     1.0000 0.76061  0.04082  0.25678  Biso   1.000  C
  C461     1.0000 0.80861  0.07981  0.25251  Biso   1.000  C
  H362     1.0000 0.72250  0.00359  0.27019  Biso   1.000  H
  H363     1.0000 0.75170  0.87720  0.10898  Biso   1.000  H
  H364     1.0000 0.70889  0.12639  0.06671  Biso   1.000  H
  C462     1.0000 0.73880  0.06541  0.09680  Biso   1.000  C
  C463     1.0000 0.77240  0.98598  0.12781  Biso   1.000  C
  C464     1.0000 0.82859  0.11558  0.07629  Biso   1.000  C
  H365     1.0000 0.75750  0.04181  0.22160  Biso   1.000  H
  C465     1.0000 0.82960  0.09708  0.23360  Biso   1.000  C
  H366     1.0000 0.75170  0.09722  0.10820  Biso   1.000  H
  C466     1.0000 0.79510  0.96989  0.14568  Biso   1.000  C
  C467     1.0000 0.81490  0.07249  0.04520  Biso   1.000  C
  C468     1.0000 0.85791  0.11912  0.07901  Biso   1.000  C
  C469     1.0000 0.85530  0.11619  0.21529  Biso   1.000  C
  C470     1.0000 0.82241  0.94743  0.16358  Biso   1.000  C
  H367     1.0000 0.79499  0.07230  0.04368  Biso   1.000  H
  C471     1.0000 0.82760  0.02921  0.01560  Biso   1.000  C
  C472     1.0000 0.87260  0.07679  0.04951  Biso   1.000  C
  H368     1.0000 0.86771  0.14909  0.09999  Biso   1.000  H
  C473     1.0000 0.86050  0.18118  0.20890  Biso   1.000  C
  C474     1.0000 0.87640  0.07381  0.20808  Biso   1.000  C
  C475     1.0000 0.82849  0.92982  0.21399  Biso   1.000  C
  C476     1.0000 0.84341  0.93940  0.13160  Biso   1.000  C
  C477     1.0000 0.85790  0.03379  0.01790  Biso   1.000  C
  C478     1.0000 0.81201  0.98561  0.97950  Biso   1.000  C
  C479     1.0000 0.90300  0.08641  0.05141  Biso   1.000  C
  H369     1.0000 0.84591  0.21011  0.21440  Biso   1.000  H
  C480     1.0000 0.88551  0.20501  0.19501  Biso   1.000  C
  C481     1.0000 0.90220  0.09458  0.19349  Biso   1.000  C
  H370     1.0000 0.87341  0.03002  0.21321  Biso   1.000  H
  H371     1.0000 0.81440  0.93511  0.23639  Biso   1.000  H
  C482     1.0000 0.85380  0.90561  0.23160  Biso   1.000  C
  C483     1.0000 0.86980  0.91571  0.14810  Biso   1.000  C
  H372     1.0000 0.83981  0.95021  0.09762  Biso   1.000  H
  O16      1.0000 0.87225  0.99561  0.98919  Biso   1.000  O
  C484     1.0000 0.78060  0.98919  0.98358  Biso   1.000  C
  C485     1.0000 0.82171  0.91642  0.98867  Biso   1.000  C
  C486     1.0000 0.81682  0.00708  0.92631  Biso   1.000  C
  H373     1.0000 0.91200  0.11742  0.07262  Biso   1.000  H
  N21      1.0000 0.91750  0.05102  0.02310  Biso   1.000  N
  C487     1.0000 0.90670  0.16122  0.18650  Biso   1.000  C
  C488     1.0000 0.88979  0.27651  0.19141  Biso   1.000  C
  C489     1.0000 0.92491  0.04922  0.18799  Biso   1.000  C
  C490     1.0000 0.87520  0.90089  0.19739  Biso   1.000  C
  C491     1.0000 0.86061  0.89141  0.28869  Biso   1.000  C
  C492     1.0000 0.88990  0.90840  0.11158  Biso   1.000  C
  H374     1.0000 0.77102  0.96031  0.95959  Biso   1.000  H
  H375     1.0000 0.77650  0.97730  0.01731  Biso   1.000  H
  H376     1.0000 0.77412  0.03242  0.97667  Biso   1.000  H
  H377     1.0000 0.81132  0.88853  0.96479  Biso   1.000  H
  H378     1.0000 0.84181  0.91302  0.98470  Biso   1.000  H
  H379     1.0000 0.81801  0.90382  0.02251  Biso   1.000  H
  H380     1.0000 0.80671  0.97890  0.90227  Biso   1.000  H
  H381     1.0000 0.80981  0.05031  0.92118  Biso   1.000  H
  H382     1.0000 0.83690  0.00590  0.92148  Biso   1.000  H
  C493     1.0000 0.94779  0.05739  0.02570  Biso   1.000  C
  O17      1.0000 0.93200  0.18042  0.17280  Biso   1.000  O
  C494     1.0000 0.91341  0.29511  0.22929  Biso   1.000  C
  C495     1.0000 0.89900  0.29180  0.13781  Biso   1.000  C
  C496     1.0000 0.86379  0.31361  0.19898  Biso   1.000  C
  H383     1.0000 0.92120  0.00571  0.19278  Biso   1.000  H
  N22      1.0000 0.94877  0.06499  0.17740  Biso   1.000  N
  O18      1.0000 0.90100  0.87871  0.21328  Biso   1.000  O
  C497     1.0000 0.83331  0.89749  0.31688  Biso   1.000  C
  C498     1.0000 0.88251  0.93718  0.30960  Biso   1.000  C
  C499     1.0000 0.87011  0.82161  0.29400  Biso   1.000  C
  H384     1.0000 0.88461  0.91958  0.07811  Biso   1.000  H
  N23      1.0000 0.91471  0.88711  0.12291  Biso   1.000  N
  C500     1.0000 0.96220  0.99858  0.03870  Biso   1.000  C
  H385     1.0000 0.95370  0.08981  0.05081  Biso   1.000  H
  H386     1.0000 0.95341  0.07211  0.99309  Biso   1.000  H
  H387     1.0000 0.93020  0.27042  0.22380  Biso   1.000  H
  H388     1.0000 0.91750  0.34022  0.22591  Biso   1.000  H
  H389     1.0000 0.90792  0.28680  0.26280  Biso   1.000  H
  H390     1.0000 0.91601  0.26802  0.13209  Biso   1.000  H
  H391     1.0000 0.88389  0.28000  0.11288  Biso   1.000  H
  H392     1.0000 0.90279  0.33711  0.13528  Biso   1.000  H
  H393     1.0000 0.84880  0.30091  0.17421  Biso   1.000  H
  H394     1.0000 0.85800  0.30530  0.23241  Biso   1.000  H
  H395     1.0000 0.86771  0.35872  0.19538  Biso   1.000  H
  C501     1.0000 0.97121  0.01831  0.17469  Biso   1.000  C
  H396     1.0000 0.81921  0.86753  0.30299  Biso   1.000  H
  H397     1.0000 0.83781  0.88829  0.35220  Biso   1.000  H
  H398     1.0000 0.82601  0.94058  0.31320  Biso   1.000  H
  H399     1.0000 0.87550  0.98041  0.30529  Biso   1.000  H
  H400     1.0000 0.88691  0.92860  0.34511  Biso   1.000  H
  H401     1.0000 0.89961  0.93232  0.29210  Biso   1.000  H
  H402     1.0000 0.85510  0.79400  0.27981  Biso   1.000  H
  H403     1.0000 0.88691  0.81519  0.27621  Biso   1.000  H
  H404     1.0000 0.87431  0.81151  0.32921  Biso   1.000  H
  C502     1.0000 0.93410  0.87720  0.08369  Biso   1.000  C
  N24      1.0000 0.95938  0.97961  0.09000  Biso   1.000  N
  H405     1.0000 0.98230  0.00340  0.03362  Biso   1.000  H
  H406     1.0000 0.95451  0.96489  0.01620  Biso   1.000  H
  H407     1.0000 0.98751  0.03082  0.19750  Biso   1.000  H
  C503     1.0000 0.98021  0.01251  0.12321  Biso   1.000  C
  H408     1.0000 0.96451  0.97669  0.18561  Biso   1.000  H
  C504     1.0000 0.96161  0.91061  0.09490  Biso   1.000  C
  H409     1.0000 0.92510  0.89282  0.05171  Biso   1.000  H
  H410     1.0000 0.93760  0.83152  0.08020  Biso   1.000  H
  H411     1.0000 0.98341  0.05522  0.10991  Biso   1.000  H
  H412     1.0000 0.99820  0.98929  0.12429  Biso   1.000  H
  H413     1.0000 0.96901  0.90009  0.12919  Biso   1.000  H
  H414     1.0000 0.97510  0.89480  0.07199  Biso   1.000  H
  C505     1.0000 0.38251  0.43721  0.30960  Biso   1.000  C
  C506     1.0000 0.36061  0.39138  0.28869  Biso   1.000  C
  H415     1.0000 0.37550  0.48039  0.30529  Biso   1.000  H
  H416     1.0000 0.38691  0.42862  0.34511  Biso   1.000  H
  H417     1.0000 0.39961  0.43230  0.29210  Biso   1.000  H
  C507     1.0000 0.33331  0.39752  0.31688  Biso   1.000  C
  C508     1.0000 0.35380  0.40559  0.23160  Biso   1.000  C
  C509     1.0000 0.37011  0.32158  0.29400  Biso   1.000  C
  H418     1.0000 0.31921  0.36750  0.30299  Biso   1.000  H
  H419     1.0000 0.33781  0.38831  0.35220  Biso   1.000  H
  H420     1.0000 0.32601  0.44061  0.31320  Biso   1.000  H
  C510     1.0000 0.32849  0.42980  0.21399  Biso   1.000  C
  C511     1.0000 0.37520  0.40092  0.19739  Biso   1.000  C
  H421     1.0000 0.35510  0.29402  0.27981  Biso   1.000  H
  H422     1.0000 0.38691  0.31521  0.27621  Biso   1.000  H
  H423     1.0000 0.37431  0.31148  0.32921  Biso   1.000  H
  C512     1.0000 0.32241  0.44740  0.16358  Biso   1.000  C
  H424     1.0000 0.31440  0.43508  0.23639  Biso   1.000  H
  O19      1.0000 0.40100  0.37869  0.21328  Biso   1.000  O
  C513     1.0000 0.36980  0.41569  0.14810  Biso   1.000  C
  C514     1.0000 0.29510  0.46991  0.14568  Biso   1.000  C
  C515     1.0000 0.34341  0.43938  0.13160  Biso   1.000  C
  C516     1.0000 0.38990  0.40842  0.11158  Biso   1.000  C
  C517     1.0000 0.27240  0.48601  0.12781  Biso   1.000  C
  H425     1.0000 0.33981  0.45019  0.09762  Biso   1.000  H
  H426     1.0000 0.38461  0.41960  0.07811  Biso   1.000  H
  N25      1.0000 0.41471  0.38709  0.12291  Biso   1.000  N
  C518     1.0000 0.24567  0.50441  0.10430  Biso   1.000  C
  C519     1.0000 0.43410  0.37722  0.08369  Biso   1.000  C
  C520     1.0000 0.22604  0.45542  0.08970  Biso   1.000  C
  C521     1.0000 0.23880  0.56539  0.09680  Biso   1.000  C
  H427     1.0000 0.42510  0.39280  0.05171  Biso   1.000  H
  H428     1.0000 0.43760  0.33149  0.08020  Biso   1.000  H
  C522     1.0000 0.46161  0.41059  0.09490  Biso   1.000  C
  C523     1.0000 0.23391  0.38949  0.09349  Biso   1.000  C
  C524     1.0000 0.19905  0.47180  0.06879  Biso   1.000  C
  C525     1.0000 0.21310  0.58309  0.07269  Biso   1.000  C
  H429     1.0000 0.25170  0.59720  0.10820  Biso   1.000  H
  H430     1.0000 0.46901  0.40011  0.12919  Biso   1.000  H
  H431     1.0000 0.47510  0.39478  0.07199  Biso   1.000  H
  N26      1.0000 0.45938  0.47959  0.09000  Biso   1.000  N
  C526     1.0000 0.21541  0.34551  0.07440  Biso   1.000  C
  H432     1.0000 0.25170  0.37722  0.10898  Biso   1.000  H
  C527     1.0000 0.17820  0.42192  0.05661  Biso   1.000  C
  C528     1.0000 0.19360  0.53660  0.05739  Biso   1.000  C
  H433     1.0000 0.20889  0.62641  0.06671  Biso   1.000  H
  C529     1.0000 0.48021  0.51248  0.12321  Biso   1.000  C
  C530     1.0000 0.46220  0.49861  0.03870  Biso   1.000  C
  C531     1.0000 0.18921  0.36000  0.05501  Biso   1.000  C
  H434     1.0000 0.22101  0.30252  0.07470  Biso   1.000  H
  C532     1.0000 0.14970  0.43221  0.04338  Biso   1.000  C
  H435     1.0000 0.17650  0.54821  0.03919  Biso   1.000  H
  C533     1.0000 0.47121  0.51829  0.17469  Biso   1.000  C
  H436     1.0000 0.48341  0.55519  0.10991  Biso   1.000  H
  H437     1.0000 0.49820  0.48931  0.12429  Biso   1.000  H
  C534     1.0000 0.44779  0.55741  0.02570  Biso   1.000  C
  H438     1.0000 0.48230  0.50342  0.03362  Biso   1.000  H
  H439     1.0000 0.45451  0.46491  0.01620  Biso   1.000  H
  C535     1.0000 0.17121  0.31252  0.03038  Biso   1.000  C
  C536     1.0000 0.13264  0.48789  0.05809  Biso   1.000  C
  C537     1.0000 0.13510  0.38770  0.01382  Biso   1.000  C
  H440     1.0000 0.46451  0.47671  0.18561  Biso   1.000  H
  H441     1.0000 0.48751  0.53079  0.19750  Biso   1.000  H
  N27      1.0000 0.44877  0.56501  0.17740  Biso   1.000  N
  H442     1.0000 0.45370  0.58979  0.05081  Biso   1.000  H
  N28      1.0000 0.41750  0.55099  0.02310  Biso   1.000  N
  H443     1.0000 0.45341  0.57209  0.99309  Biso   1.000  H
  C538     1.0000 0.14620  0.32422  0.00828  Biso   1.000  C
  H444     1.0000 0.17789  0.27028  0.03020  Biso   1.000  H
  C539     1.0000 0.13945  0.52320  0.10330  Biso   1.000  C
  C540     1.0000 0.10809  0.50210  0.02871  Biso   1.000  C
  C541     1.0000 0.10802  0.40181  0.98819  Biso   1.000  C
  C542     1.0000 0.42491  0.54920  0.18799  Biso   1.000  C
  C543     1.0000 0.40300  0.58639  0.05141  Biso   1.000  C
  H445     1.0000 0.13592  0.29270  0.98960  Biso   1.000  H
  C544     1.0000 0.15905  0.50201  0.14290  Biso   1.000  C
  C545     1.0000 0.12528  0.57969  0.11221  Biso   1.000  C
  C546     1.0000 0.09410  0.56241  0.03870  Biso   1.000  C
  C547     1.0000 0.09642  0.46081  0.99328  Biso   1.000  C
  H446     1.0000 0.09841  0.37071  0.96809  Biso   1.000  H
  C548     1.0000 0.40220  0.59460  0.19349  Biso   1.000  C
  H447     1.0000 0.42120  0.50569  0.19278  Biso   1.000  H
  C549     1.0000 0.37260  0.57681  0.04951  Biso   1.000  C
  H448     1.0000 0.41200  0.61740  0.07262  Biso   1.000  H
  C550     1.0000 0.16580  0.53712  0.18320  Biso   1.000  C
  H449     1.0000 0.16750  0.46170  0.14029  Biso   1.000  H
  C551     1.0000 0.13233  0.61650  0.15489  Biso   1.000  C
  C552     1.0000 0.10269  0.59720  0.07681  Biso   1.000  C
  H450     1.0000 0.07861  0.57601  0.01720  Biso   1.000  H
  H451     1.0000 0.08031  0.47298  0.97248  Biso   1.000  H
  C553     1.0000 0.40670  0.66119  0.18650  Biso   1.000  C
  C554     1.0000 0.37640  0.57379  0.20808  Biso   1.000  C
  C555     1.0000 0.35790  0.53381  0.01790  Biso   1.000  C
  C556     1.0000 0.35791  0.61909  0.07901  Biso   1.000  C
  C557     1.0000 0.15261  0.59569  0.18888  Biso   1.000  C
  H452     1.0000 0.17951  0.52249  0.20790  Biso   1.000  H
  C558     1.0000 0.11771  0.67379  0.16210  Biso   1.000  C
  H453     1.0000 0.09361  0.63632  0.08120  Biso   1.000  H
  O20      1.0000 0.43200  0.68040  0.17280  Biso   1.000  O
  C559     1.0000 0.38551  0.70499  0.19501  Biso   1.000  C
  C560     1.0000 0.35530  0.61622  0.21529  Biso   1.000  C
  H454     1.0000 0.37341  0.52999  0.21321  Biso   1.000  H
  C561     1.0000 0.32760  0.52919  0.01560  Biso   1.000  C
  O21      1.0000 0.37225  0.49559  0.98919  Biso   1.000  O
  C562     1.0000 0.32859  0.61560  0.07629  Biso   1.000  C
  H455     1.0000 0.36771  0.64911  0.09999  Biso   1.000  H
  H456     1.0000 0.15800  0.62098  0.21711  Biso   1.000  H
  C563     1.0000 0.10462  0.72160  0.16960  Biso   1.000  C
  C564     1.0000 0.36050  0.68120  0.20890  Biso   1.000  C
  C565     1.0000 0.38979  0.77649  0.19141  Biso   1.000  C
  C566     1.0000 0.32960  0.59710  0.23360  Biso   1.000  C
  C567     1.0000 0.31490  0.57251  0.04520  Biso   1.000  C
  C568     1.0000 0.31201  0.48558  0.97950  Biso   1.000  C
  C569     1.0000 0.31340  0.66138  0.10341  Biso   1.000  C
  C570     1.0000 0.08732  0.77460  0.17659  Biso   1.000  C
  H457     1.0000 0.34591  0.71009  0.21440  Biso   1.000  H
  C571     1.0000 0.41341  0.79508  0.22929  Biso   1.000  C
  C572     1.0000 0.39900  0.79183  0.13781  Biso   1.000  C
  C573     1.0000 0.36379  0.81358  0.19898  Biso   1.000  C
  C574     1.0000 0.30861  0.57978  0.25251  Biso   1.000  C
  H458     1.0000 0.29499  0.57233  0.04368  Biso   1.000  H
  C575     1.0000 0.28060  0.48922  0.98358  Biso   1.000  C
  C576     1.0000 0.31682  0.50710  0.92631  Biso   1.000  C
  C577     1.0000 0.32171  0.41640  0.98867  Biso   1.000  C
  C578     1.0000 0.30211  0.70050  0.12651  Biso   1.000  C
  C579     1.0000 0.09535  0.83609  0.16210  Biso   1.000  C
  C580     1.0000 0.06140  0.76728  0.19460  Biso   1.000  C
  H459     1.0000 0.43020  0.77040  0.22380  Biso   1.000  H
  H460     1.0000 0.41750  0.84020  0.22591  Biso   1.000  H
  H461     1.0000 0.40792  0.78682  0.26280  Biso   1.000  H
  H462     1.0000 0.41601  0.76799  0.13209  Biso   1.000  H
  H463     1.0000 0.38389  0.77998  0.11288  Biso   1.000  H
  H464     1.0000 0.40279  0.83709  0.13528  Biso   1.000  H
  H465     1.0000 0.34880  0.80089  0.17421  Biso   1.000  H
  H466     1.0000 0.35800  0.80532  0.23241  Biso   1.000  H
  H467     1.0000 0.36771  0.85870  0.19538  Biso   1.000  H
  C581     1.0000 0.28619  0.56072  0.28029  Biso   1.000  C
  H468     1.0000 0.27650  0.47732  0.01731  Biso   1.000  H
  H469     1.0000 0.27102  0.46029  0.95959  Biso   1.000  H
  H470     1.0000 0.27412  0.53240  0.97667  Biso   1.000  H
  H471     1.0000 0.30671  0.47888  0.90227  Biso   1.000  H
  H472     1.0000 0.30981  0.55029  0.92118  Biso   1.000  H
  H473     1.0000 0.33690  0.50592  0.92148  Biso   1.000  H
  H474     1.0000 0.31801  0.40379  0.02251  Biso   1.000  H
  H475     1.0000 0.31132  0.38850  0.96479  Biso   1.000  H
  H476     1.0000 0.34181  0.41300  0.98470  Biso   1.000  H
  C582     1.0000 0.28932  0.74959  0.15318  Biso   1.000  C
  C583     1.0000 0.07836  0.88881  0.16459  Biso   1.000  C
  H477     1.0000 0.11340  0.84143  0.15021  Biso   1.000  H
  C584     1.0000 0.04340  0.81882  0.19750  Biso   1.000  C
  H478     1.0000 0.05571  0.72689  0.20519  Biso   1.000  H
  C585     1.0000 0.29005  0.55982  0.33248  Biso   1.000  C
  C586     1.0000 0.26061  0.54080  0.25678  Biso   1.000  C
  C587     1.0000 0.28885  0.81283  0.13461  Biso   1.000  C
  C588     1.0000 0.27763  0.73769  0.19709  Biso   1.000  C
  C589     1.0000 0.05164  0.87998  0.18249  Biso   1.000  C
  C590     1.0000 0.08790  0.95488  0.14992  Biso   1.000  C
  C591     1.0000 0.01573  0.80839  0.21611  Biso   1.000  C
  C592     1.0000 0.31720  0.57379  0.35789  Biso   1.000  C
  C593     1.0000 0.26737  0.54321  0.36160  Biso   1.000  C
  C594     1.0000 0.23951  0.51942  0.28609  Biso   1.000  C
  H479     1.0000 0.25750  0.54179  0.22160  Biso   1.000  H
  C595     1.0000 0.30361  0.82769  0.09149  Biso   1.000  C
  C596     1.0000 0.27524  0.86030  0.15902  Biso   1.000  C
  C597     1.0000 0.26643  0.78512  0.22398  Biso   1.000  C
  H480     1.0000 0.27729  0.69560  0.20909  Biso   1.000  H
  O22      1.0000 0.03398  0.92822  0.18580  Biso   1.000  O
  C598     1.0000 0.11771  0.94969  0.13238  Biso   1.000  C
  C599     1.0000 0.08750  0.99962  0.19289  Biso   1.000  C
  C600     1.0000 0.06959  0.97829  0.10378  Biso   1.000  C
  H481     1.0000 0.01131  0.76771  0.22799  Biso   1.000  H
  N29      1.0000 0.99755  0.85200  0.21689  Biso   1.000  N
  C601     1.0000 0.32162  0.56548  0.40670  Biso   1.000  C
  H482     1.0000 0.33200  0.58889  0.33950  Biso   1.000  H
  C602     1.0000 0.27171  0.54552  0.41509  Biso   1.000  C
  C603     1.0000 0.24290  0.52060  0.33672  Biso   1.000  C
  H483     1.0000 0.22250  0.50361  0.27019  Biso   1.000  H
  C604     1.0000 0.30490  0.89051  0.07719  Biso   1.000  C
  H484     1.0000 0.31210  0.79551  0.07351  Biso   1.000  H
  C605     1.0000 0.27273  0.92321  0.13751  Biso   1.000  C
  C606     1.0000 0.26542  0.84610  0.20641  Biso   1.000  C
  H485     1.0000 0.25930  0.77583  0.25511  Biso   1.000  H
  H486     1.0000 0.11760  0.92038  0.10430  Biso   1.000  H
  H487     1.0000 0.12401  0.99141  0.12198  Biso   1.000  H
  H488     1.0000 0.13060  0.93412  0.15968  Biso   1.000  H
  H489     1.0000 0.10020  0.98410  0.22060  Biso   1.000  H
  H490     1.0000 0.09370  0.04139  0.18279  Biso   1.000  H
  H491     1.0000 0.06840  0.00241  0.20340  Biso   1.000  H
  H492     1.0000 0.07049  0.94780  0.07681  Biso   1.000  H
  H493     1.0000 0.05011  0.98282  0.11210  Biso   1.000  H
  H494     1.0000 0.07660  0.01930  0.09331  Biso   1.000  H
  C607     1.0000 0.96981  0.83751  0.23401  Biso   1.000  C
  C608     1.0000 0.29891  0.54859  0.43689  Biso   1.000  C
  H495     1.0000 0.34001  0.57072  0.42218  Biso   1.000  H
  C609     1.0000 0.24909  0.54151  0.44859  Biso   1.000  C
  H496     1.0000 0.22821  0.50569  0.35521  Biso   1.000  H
  C610     1.0000 0.28970  0.93879  0.09970  Biso   1.000  C
  H497     1.0000 0.31640  0.90151  0.05141  Biso   1.000  H
  C611     1.0000 0.25370  0.97220  0.15259  Biso   1.000  C
  H498     1.0000 0.25821  0.87881  0.22569  Biso   1.000  H
  C612     1.0000 0.96410  0.87980  0.27792  Biso   1.000  C
  H499     1.0000 0.96910  0.79258  0.24419  Biso   1.000  H
  H500     1.0000 0.95510  0.84431  0.20660  Biso   1.000  H
  C613     1.0000 0.30551  0.53348  0.48778  Biso   1.000  C
  C614     1.0000 0.22032  0.56048  0.43630  Biso   1.000  C
  C615     1.0000 0.25630  0.51772  0.49718  Biso   1.000  C
  C616     1.0000 0.29289  0.00340  0.08391  Biso   1.000  C
  C617     1.0000 0.22823  0.96130  0.17770  Biso   1.000  C
  C618     1.0000 0.26010  0.03591  0.14111  Biso   1.000  C
  H501     1.0000 0.96990  0.92350  0.27090  Biso   1.000  H
  H502     1.0000 0.94381  0.87998  0.28230  Biso   1.000  H
  N30      1.0000 0.97947  0.85780  0.32349  Biso   1.000  N
  C619     1.0000 0.28482  0.51489  0.51501  Biso   1.000  C
  H503     1.0000 0.32422  0.53660  0.50231  Biso   1.000  H
  C620     1.0000 0.21192  0.60730  0.39860  Biso   1.000  C
  C621     1.0000 0.19920  0.53599  0.46460  Biso   1.000  C
  C622     1.0000 0.23410  0.49842  0.52660  Biso   1.000  C
  C623     1.0000 0.28000  0.04899  0.10750  Biso   1.000  C
  H504     1.0000 0.30391  0.01321  0.05720  Biso   1.000  H
  C624     1.0000 0.21221  0.90259  0.17309  Biso   1.000  C
  C625     1.0000 0.21759  0.01029  0.20441  Biso   1.000  C
  C626     1.0000 0.24601  0.08679  0.16589  Biso   1.000  C
  C627     1.0000 0.96540  0.80570  0.34589  Biso   1.000  C
  C628     1.0000 0.98530  0.91009  0.35818  Biso   1.000  C
  H505     1.0000 0.28951  0.49922  0.54758  Biso   1.000  H
  C629     1.0000 0.23078  0.64958  0.37861  Biso   1.000  C
  C630     1.0000 0.18324  0.61249  0.38199  Biso   1.000  C
  C631     1.0000 0.17030  0.54500  0.44800  Biso   1.000  C
  C632     1.0000 0.20731  0.50271  0.50988  Biso   1.000  C
  H506     1.0000 0.23871  0.48190  0.55891  Biso   1.000  H
  H507     1.0000 0.28450  0.09170  0.10111  Biso   1.000  H
  C633     1.0000 0.21480  0.85780  0.13621  Biso   1.000  C
  C634     1.0000 0.19132  0.89141  0.20742  Biso   1.000  C
  C635     1.0000 0.19530  0.99920  0.23631  Biso   1.000  C
  C636     1.0000 0.22781  0.07372  0.19921  Biso   1.000  C
  H508     1.0000 0.24979  0.12950  0.15809  Biso   1.000  H
  H509     1.0000 0.95480  0.78121  0.31941  Biso   1.000  H
  H510     1.0000 0.95190  0.82269  0.36821  Biso   1.000  H
  C637     1.0000 0.98550  0.76228  0.37501  Biso   1.000  C
  C638     1.0000 0.01180  0.94610  0.34648  Biso   1.000  C
  H511     1.0000 0.98781  0.89348  0.39251  Biso   1.000  H
  H512     1.0000 0.96911  0.93940  0.35618  Biso   1.000  H
  C639     1.0000 0.22190  0.69012  0.34110  Biso   1.000  C
  H513     1.0000 0.24991  0.65001  0.39128  Biso   1.000  H
  C640     1.0000 0.17493  0.65402  0.34169  Biso   1.000  C
  C641     1.0000 0.16280  0.57898  0.40818  Biso   1.000  C
  H514     1.0000 0.15630  0.52612  0.46609  Biso   1.000  H
  H515     1.0000 0.19331  0.48360  0.52808  Biso   1.000  H
  C642     1.0000 0.19974  0.80249  0.13431  Biso   1.000  C
  H516     1.0000 0.22741  0.86559  0.11140  Biso   1.000  H
  C643     1.0000 0.17691  0.83312  0.20678  Biso   1.000  C
  C644     1.0000 0.18420  0.94101  0.23921  Biso   1.000  C
  H517     1.0000 0.18850  0.03280  0.25518  Biso   1.000  H
  H518     1.0000 0.22160  0.10642  0.21978  Biso   1.000  H
  N31      1.0000 0.00156  0.72580  0.34299  Biso   1.000  N
  H519     1.0000 0.99841  0.78763  0.39771  Biso   1.000  H
  H520     1.0000 0.97492  0.73359  0.39552  Biso   1.000  H
  H521     1.0000 0.01110  0.95521  0.31038  Biso   1.000  H
  H522     1.0000 0.01281  0.98693  0.36450  Biso   1.000  H
  N32      1.0000 0.03643  0.90892  0.36108  Biso   1.000  N
  C645     1.0000 0.19471  0.69182  0.32071  Biso   1.000  C
  H523     1.0000 0.23512  0.71830  0.32869  Biso   1.000  H
  C646     1.0000 0.14573  0.65661  0.32279  Biso   1.000  C
  H524     1.0000 0.14352  0.58139  0.39670  Biso   1.000  H
  C647     1.0000 0.18160  0.78800  0.17031  Biso   1.000  C
  H525     1.0000 0.20180  0.77370  0.10790  Biso   1.000  H
  C648     1.0000 0.15759  0.82151  0.24359  Biso   1.000  C
  H526     1.0000 0.17120  0.93298  0.26321  Biso   1.000  H
  C649     1.0000 0.02771  0.72670  0.34678  Biso   1.000  C
  C650     1.0000 0.05283  0.89443  0.32869  Biso   1.000  C
  H527     1.0000 0.18941  0.71801  0.29300  Biso   1.000  H
  C651     1.0000 0.12150  0.65628  0.31090  Biso   1.000  C
  H528     1.0000 0.17251  0.74812  0.17031  Biso   1.000  H
  C652     1.0000 0.14188  0.81901  0.27509  Biso   1.000  C
  H529     1.0000 0.03671  0.75412  0.37100  Biso   1.000  H
  C653     1.0000 0.04560  0.68852  0.31681  Biso   1.000  C
  H530     1.0000 0.04800  0.90622  0.29519  Biso   1.000  H
  C654     1.0000 0.07943  0.85969  0.34080  Biso   1.000  C
  C655     1.0000 0.09159  0.65482  0.29931  Biso   1.000  C
  C656     1.0000 0.12296  0.82161  0.31398  Biso   1.000  C
  C657     1.0000 0.03340  0.64892  0.28040  Biso   1.000  C
  C658     1.0000 0.07413  0.69140  0.32591  Biso   1.000  C
  C659     1.0000 0.08706  0.84218  0.38968  Biso   1.000  C
  C660     1.0000 0.09665  0.85030  0.30299  Biso   1.000  C
  C661     1.0000 0.07993  0.61532  0.26168  Biso   1.000  C
  C662     1.0000 0.13081  0.80268  0.36231  Biso   1.000  C
  O23      1.0000 0.00542  0.64670  0.27030  Biso   1.000  O
  C663     1.0000 0.05041  0.60999  0.25121  Biso   1.000  C
  H531     1.0000 0.08211  0.71901  0.35090  Biso   1.000  H
  O24      1.0000 0.07072  0.85332  0.42620  Biso   1.000  O
  C664     1.0000 0.11366  0.81051  0.40120  Biso   1.000  C
  H532     1.0000 0.09091  0.86299  0.27012  Biso   1.000  H
  H533     1.0000 0.09200  0.59139  0.24270  Biso   1.000  H
  H534     1.0000 0.14870  0.78361  0.36911  Biso   1.000  H
  C665     1.0000 0.03851  0.56690  0.21050  Biso   1.000  C
  C666     1.0000 0.12221  0.78810  0.45398  Biso   1.000  C
  C667     1.0000 0.02181  0.51300  0.23620  Biso   1.000  C
  C668     1.0000 0.06139  0.53169  0.18450  Biso   1.000  C
  C669     1.0000 0.02070  0.60479  0.16930  Biso   1.000  C
  C670     1.0000 0.12681  0.84501  0.48938  Biso   1.000  C
  C671     1.0000 0.09990  0.74312  0.47240  Biso   1.000  C
  C672     1.0000 0.15051  0.75209  0.45658  Biso   1.000  C
  H535     1.0000 0.01371  0.48369  0.21091  Biso   1.000  H
  H536     1.0000 0.03460  0.48992  0.26001  Biso   1.000  H
  H537     1.0000 0.00670  0.53188  0.25381  Biso   1.000  H
  H538     1.0000 0.05259  0.50441  0.15838  Biso   1.000  H
  H539     1.0000 0.07360  0.56232  0.16971  Biso   1.000  H
  H540     1.0000 0.07260  0.50592  0.20879  Biso   1.000  H
  H541     1.0000 0.01330  0.57582  0.14319  Biso   1.000  H
  H542     1.0000 0.00511  0.62589  0.18401  Biso   1.000  H
  H543     1.0000 0.03261  0.63651  0.15489  Biso   1.000  H
  H544     1.0000 0.13230  0.82982  0.52311  Biso   1.000  H
  H545     1.0000 0.14171  0.87191  0.47809  Biso   1.000  H
  H546     1.0000 0.10940  0.86941  0.48949  Biso   1.000  H
  H547     1.0000 0.10582  0.72929  0.50628  Biso   1.000  H
  H548     1.0000 0.08191  0.76502  0.47218  Biso   1.000  H
  H549     1.0000 0.09801  0.70622  0.45049  Biso   1.000  H
  H550     1.0000 0.15542  0.73840  0.49079  Biso   1.000  H
  H551     1.0000 0.14870  0.71518  0.43470  Biso   1.000  H
  H552     1.0000 0.16521  0.78012  0.44588  Biso   1.000  H
  C673     1.0000 0.26961  0.32158  0.39511  Biso   1.000  C
  N33      1.0000 0.26108  0.25801  0.40658  Biso   1.000  N
  H553     1.0000 0.26351  0.33088  0.35989  Biso   1.000  H
  H554     1.0000 0.29040  0.32408  0.39890  Biso   1.000  H
  C674     1.0000 0.25771  0.37099  0.42761  Biso   1.000  C
  C675     1.0000 0.26221  0.21511  0.36398  Biso   1.000  C
  C676     1.0000 0.27670  0.23371  0.45019  Biso   1.000  C
  H555     1.0000 0.25990  0.35731  0.46278  Biso   1.000  H
  H556     1.0000 0.26802  0.41130  0.42478  Biso   1.000  H
  N34      1.0000 0.22784  0.38010  0.41178  Biso   1.000  N
  C677     1.0000 0.23760  0.22172  0.32669  Biso   1.000  C
  H557     1.0000 0.26310  0.17098  0.37620  Biso   1.000  H
  H558     1.0000 0.27961  0.22351  0.34760  Biso   1.000  H
  H559     1.0000 0.27991  0.26821  0.47471  Biso   1.000  H
  H560     1.0000 0.29531  0.21912  0.44098  Biso   1.000  H
  C678     1.0000 0.26181  0.17868  0.47441  Biso   1.000  C
  C679     1.0000 0.20952  0.37071  0.44228  Biso   1.000  C
  H561     1.0000 0.23381  0.26712  0.32078  Biso   1.000  H
  H562     1.0000 0.24240  0.20279  0.29489  Biso   1.000  H
  N35      1.0000 0.21207  0.19118  0.34229  Biso   1.000  N
  H563     1.0000 0.25441  0.14838  0.44871  Biso   1.000  H
  H564     1.0000 0.27510  0.15612  0.49811  Biso   1.000  H
  N36      1.0000 0.23880  0.20440  0.50041  Biso   1.000  N
  H565     1.0000 0.21541  0.35641  0.47478  Biso   1.000  H
  C680     1.0000 0.17980  0.38091  0.42939  Biso   1.000  C
  C681     1.0000 0.19081  0.22469  0.35031  Biso   1.000  C
  C682     1.0000 0.21352  0.18779  0.48700  Biso   1.000  C
  C683     1.0000 0.16990  0.39898  0.38099  Biso   1.000  C
  C684     1.0000 0.16080  0.37151  0.46579  Biso   1.000  C
  C685     1.0000 0.16410  0.19770  0.36238  Biso   1.000  C
  H566     1.0000 0.19230  0.26929  0.34819  Biso   1.000  H
  H567     1.0000 0.21051  0.16070  0.45900  Biso   1.000  H
  C686     1.0000 0.18970  0.20751  0.51170  Biso   1.000  C
  O25      1.0000 0.18789  0.40781  0.34630  Biso   1.000  O
  C687     1.0000 0.14060  0.40899  0.36888  Biso   1.000  C
  C688     1.0000 0.13282  0.38260  0.45639  Biso   1.000  C
  H568     1.0000 0.16762  0.35702  0.49781  Biso   1.000  H
  C689     1.0000 0.16000  0.13068  0.36190  Biso   1.000  C
  C690     1.0000 0.14221  0.23800  0.37070  Biso   1.000  C
  C691     1.0000 0.19251  0.24579  0.55401  Biso   1.000  C
  C692     1.0000 0.16292  0.18439  0.49569  Biso   1.000  C
  C693     1.0000 0.12321  0.40139  0.40718  Biso   1.000  C
  C694     1.0000 0.12910  0.42579  0.31610  Biso   1.000  C
  C695     1.0000 0.11221  0.37260  0.49280  Biso   1.000  C
  O26      1.0000 0.18117  0.09359  0.35529  Biso   1.000  O
  C696     1.0000 0.13301  0.10661  0.36981  Biso   1.000  C
  C697     1.0000 0.11591  0.21450  0.37769  Biso   1.000  C
  H569     1.0000 0.14522  0.28232  0.37159  Biso   1.000  H
  O27      1.0000 0.21845  0.26849  0.56991  Biso   1.000  O
  C698     1.0000 0.16902  0.26169  0.58090  Biso   1.000  C
  C699     1.0000 0.14001  0.20001  0.52058  Biso   1.000  C
  H570     1.0000 0.16070  0.15782  0.46728  Biso   1.000  H
  H571     1.0000 0.10370  0.40922  0.40031  Biso   1.000  H
  C700     1.0000 0.13491  0.37260  0.28219  Biso   1.000  C
  C701     1.0000 0.09851  0.43541  0.31291  Biso   1.000  C
  C702     1.0000 0.14140  0.48671  0.29838  Biso   1.000  C
  C703     1.0000 0.09701  0.36410  0.52370  Biso   1.000  C
  C704     1.0000 0.11222  0.14890  0.37739  Biso   1.000  C
  C705     1.0000 0.12742  0.03521  0.36870  Biso   1.000  C
  C706     1.0000 0.09231  0.25518  0.38188  Biso   1.000  C
  C707     1.0000 0.14372  0.23890  0.56211  Biso   1.000  C
  C708     1.0000 0.17262  0.30398  0.62689  Biso   1.000  C
  C709     1.0000 0.11201  0.17438  0.50598  Biso   1.000  C
  H572     1.0000 0.15522  0.36519  0.28360  Biso   1.000  H
  H573     1.0000 0.12550  0.33442  0.29270  Biso   1.000  H
  H574     1.0000 0.12800  0.38341  0.24809  Biso   1.000  H
  H575     1.0000 0.09401  0.47020  0.33478  Biso   1.000  H
  H576     1.0000 0.09180  0.44570  0.27858  Biso   1.000  H
  H577     1.0000 0.08931  0.39681  0.32308  Biso   1.000  H
  H578     1.0000 0.16191  0.48299  0.29979  Biso   1.000  H
  H579     1.0000 0.13401  0.49521  0.26421  Biso   1.000  H
  H580     1.0000 0.13632  0.52150  0.31989  Biso   1.000  H
  C710     1.0000 0.07871  0.34881  0.56159  Biso   1.000  C
  H581     1.0000 0.09411  0.13290  0.38289  Biso   1.000  H
  C711     1.0000 0.14531  0.00269  0.40948  Biso   1.000  C
  C712     1.0000 0.09662  0.02081  0.37921  Biso   1.000  C
  C713     1.0000 0.13140  0.01100  0.31759  Biso   1.000  C
  C714     1.0000 0.07160  0.28859  0.38311  Biso   1.000  C
  H582     1.0000 0.12752  0.25032  0.57830  Biso   1.000  H
  C715     1.0000 0.19202  0.27340  0.66578  Biso   1.000  C
  C716     1.0000 0.14440  0.31318  0.65051  Biso   1.000  C
  C717     1.0000 0.18331  0.36901  0.61370  Biso   1.000  C
  C718     1.0000 0.08971  0.15121  0.49421  Biso   1.000  C
  C719     1.0000 0.06411  0.29190  0.55910  Biso   1.000  C
  C720     1.0000 0.07661  0.38879  0.60449  Biso   1.000  C
  H583     1.0000 0.14151  0.02091  0.44169  Biso   1.000  H
  H584     1.0000 0.16512  0.00849  0.40398  Biso   1.000  H
  H585     1.0000 0.14090  0.95753  0.40941  Biso   1.000  H
  H586     1.0000 0.09320  0.03601  0.41249  Biso   1.000  H
  H587     1.0000 0.08380  0.04219  0.35440  Biso   1.000  H
  H588     1.0000 0.09331  0.97522  0.37739  Biso   1.000  H
  H589     1.0000 0.11910  0.03431  0.29318  Biso   1.000  H
  H590     1.0000 0.15090  0.01699  0.31038  Biso   1.000  H
  H591     1.0000 0.12670  0.96602  0.31580  Biso   1.000  H
  C721     1.0000 0.04750  0.32800  0.38010  Biso   1.000  C
  H592     1.0000 0.18482  0.23172  0.67380  Biso   1.000  H
  H593     1.0000 0.21061  0.26882  0.65348  Biso   1.000  H
  H594     1.0000 0.19351  0.29968  0.69579  Biso   1.000  H
  H595     1.0000 0.13082  0.33319  0.62629  Biso   1.000  H
  H596     1.0000 0.13721  0.27212  0.66010  Biso   1.000  H
  H597     1.0000 0.14731  0.34022  0.67989  Biso   1.000  H
  H598     1.0000 0.17031  0.38822  0.58818  Biso   1.000  H
  H599     1.0000 0.18471  0.39572  0.64338  Biso   1.000  H
  H600     1.0000 0.20182  0.36491  0.60100  Biso   1.000  H
  C722     1.0000 0.06321  0.12228  0.48110  Biso   1.000  C
  H601     1.0000 0.06462  0.26518  0.53091  Biso   1.000  H
  C723     1.0000 0.04860  0.27481  0.59881  Biso   1.000  C
  C724     1.0000 0.05961  0.37241  0.64208  Biso   1.000  C
  C725     1.0000 0.09380  0.44330  0.61010  Biso   1.000  C
  C726     1.0000 0.03050  0.33442  0.33378  Biso   1.000  C
  C727     1.0000 0.04080  0.36269  0.42118  Biso   1.000  C
  C728     1.0000 0.04280  0.15248  0.44949  Biso   1.000  C
  C729     1.0000 0.05810  0.05951  0.49711  Biso   1.000  C
  H602     1.0000 0.03922  0.23531  0.59788  Biso   1.000  H
  C730     1.0000 0.04671  0.31351  0.63840  Biso   1.000  C
  C731     1.0000 0.05791  0.41451  0.68509  Biso   1.000  C
  H603     1.0000 0.10461  0.45651  0.58399  Biso   1.000  H
  C732     1.0000 0.09461  0.47671  0.65389  Biso   1.000  C
  C733     1.0000 0.03971  0.30521  0.29040  Biso   1.000  C
  C734     1.0000 0.00641  0.37222  0.33088  Biso   1.000  C
  C735     1.0000 0.01740  0.40412  0.41568  Biso   1.000  C
  H604     1.0000 0.05162  0.35891  0.45209  Biso   1.000  H
  H605     1.0000 0.04581  0.19439  0.43849  Biso   1.000  H
  C736     1.0000 0.01861  0.12119  0.43481  Biso   1.000  C
  C737     1.0000 0.03211  0.03110  0.48459  Biso   1.000  C
  C738     1.0000 0.08022  0.02548  0.52589  Biso   1.000  C
  H606     1.0000 0.03612  0.29992  0.66481  Biso   1.000  H
  C739     1.0000 0.07851  0.46321  0.69148  Biso   1.000  C
  C740     1.0000 0.03771  0.40729  0.72309  Biso   1.000  C
  H607     1.0000 0.10721  0.51130  0.65790  Biso   1.000  H
  C741     1.0000 0.02521  0.31710  0.24671  Biso   1.000  C
  H608     1.0000 0.05561  0.27821  0.29240  Biso   1.000  H
  C742     1.0000 0.00100  0.40908  0.37230  Biso   1.000  C
  C743     1.0000 0.98870  0.37661  0.28378  Biso   1.000  C
  H609     1.0000 0.01302  0.42900  0.44328  Biso   1.000  H
  H610     1.0000 0.00510  0.14069  0.41190  Biso   1.000  H
  C744     1.0000 0.01361  0.06338  0.45220  Biso   1.000  C
  C745     1.0000 0.02712  0.96659  0.50401  Biso   1.000  C
  H611     1.0000 0.09721  0.04639  0.53681  Biso   1.000  H
  C746     1.0000 0.07660  0.96541  0.53689  Biso   1.000  C
  C747     1.0000 0.08241  0.49299  0.73821  Biso   1.000  C
  C748     1.0000 0.04622  0.43140  0.77030  Biso   1.000  C
  C749     1.0000 0.01132  0.37661  0.71618  Biso   1.000  C
  C750     1.0000 0.00081  0.35330  0.24070  Biso   1.000  C
  H612     1.0000 0.03211  0.29950  0.21770  Biso   1.000  H
  H613     1.0000 0.98581  0.43801  0.36989  Biso   1.000  H
  C751     1.0000 0.96232  0.40729  0.27691  Biso   1.000  C
  H614     1.0000 0.99632  0.04361  0.44161  Biso   1.000  H
  C752     1.0000 0.05071  0.93331  0.52381  Biso   1.000  C
  C753     1.0000 0.00000  0.93629  0.50000  Biso   1.000  C
  H615     1.0000 0.09162  0.94289  0.55390  Biso   1.000  H
  C754     1.0000 0.06862  0.47539  0.77651  Biso   1.000  C
  H616     1.0000 0.09532  0.52692  0.74241  Biso   1.000  H
  C755     1.0000 0.03251  0.40950  0.81139  Biso   1.000  C
  C756     1.0000 0.99922  0.35330  0.75931  Biso   1.000  C
  C757     1.0000 0.99362  0.37222  0.66908  Biso   1.000  C
  C758     1.0000 0.98921  0.36632  0.19360  Biso   1.000  C
  C759     1.0000 0.94211  0.41451  0.31491  Biso   1.000  C
  C760     1.0000 0.95381  0.43140  0.22970  Biso   1.000  C
  C761     1.0000 0.04861  0.86583  0.52879  Biso   1.000  C
  C762     1.0000 0.97291  0.96659  0.49599  Biso   1.000  C
  C763     1.0000 0.00000  0.86861  0.50000  Biso   1.000  C
  H617     1.0000 0.07382  0.49243  0.80849  Biso   1.000  H
  H618     1.0000 0.03851  0.42480  0.84348  Biso   1.000  H
  C764     1.0000 0.01081  0.36632  0.80641  Biso   1.000  C
  C765     1.0000 0.97481  0.31710  0.75329  Biso   1.000  C
  C766     1.0000 0.96950  0.33442  0.66619  Biso   1.000  C
  C767     1.0000 0.99901  0.40908  0.62771  Biso   1.000  C
  C768     1.0000 0.96751  0.40950  0.18858  Biso   1.000  C
  H619     1.0000 0.99591  0.34631  0.16529  Biso   1.000  H
  C769     1.0000 0.94042  0.37241  0.35789  Biso   1.000  C
  C770     1.0000 0.92150  0.46321  0.30849  Biso   1.000  C
  C771     1.0000 0.93140  0.47539  0.22350  Biso   1.000  C
  C772     1.0000 0.02452  0.83548  0.51349  Biso   1.000  C
  H620     1.0000 0.06421  0.84242  0.54298  Biso   1.000  H
  C773     1.0000 0.94930  0.93331  0.47619  Biso   1.000  C
  C774     1.0000 0.96792  0.03110  0.51538  Biso   1.000  C
  C775     1.0000 0.97551  0.83548  0.48648  Biso   1.000  C
  H621     1.0000 0.00412  0.34631  0.83467  Biso   1.000  H
  H622     1.0000 0.96792  0.29950  0.78230  Biso   1.000  H
  C776     1.0000 0.96032  0.30521  0.70961  Biso   1.000  C
  C777     1.0000 0.95251  0.32800  0.61991  Biso   1.000  C
  H623     1.0000 0.01421  0.43801  0.63008  Biso   1.000  H
  C778     1.0000 0.98260  0.40412  0.58428  Biso   1.000  C
  H624     1.0000 0.96151  0.42480  0.15649  Biso   1.000  H
  C779     1.0000 0.95330  0.31351  0.36160  Biso   1.000  C
  C780     1.0000 0.92342  0.38879  0.39552  Biso   1.000  C
  C781     1.0000 0.90540  0.47671  0.34611  Biso   1.000  C
  C782     1.0000 0.91761  0.49299  0.26179  Biso   1.000  C
  H625     1.0000 0.92620  0.49243  0.19148  Biso   1.000  H
  H626     1.0000 0.02441  0.79069  0.51200  Biso   1.000  H
  C783     1.0000 0.92340  0.96541  0.46308  Biso   1.000  C
  C784     1.0000 0.95141  0.86583  0.47118  Biso   1.000  C
  C785     1.0000 0.98642  0.06338  0.54781  Biso   1.000  C
  C786     1.0000 0.94190  0.05951  0.50290  Biso   1.000  C
  H627     1.0000 0.97562  0.79069  0.48800  Biso   1.000  H
  H628     1.0000 0.94442  0.27821  0.70760  Biso   1.000  H
  C787     1.0000 0.95920  0.36269  0.57879  Biso   1.000  C
  C788     1.0000 0.92841  0.28859  0.61690  Biso   1.000  C
  H629     1.0000 0.98701  0.42900  0.55669  Biso   1.000  H
  C789     1.0000 0.95140  0.27481  0.40120  Biso   1.000  C
  H630     1.0000 0.96391  0.29992  0.33519  Biso   1.000  H
  C790     1.0000 0.92131  0.34881  0.43838  Biso   1.000  C
  C791     1.0000 0.90620  0.44330  0.38991  Biso   1.000  C
  H631     1.0000 0.89282  0.51130  0.34210  Biso   1.000  H
  H632     1.0000 0.90471  0.52692  0.25760  Biso   1.000  H
  H633     1.0000 0.90841  0.94289  0.44611  Biso   1.000  H
  C792     1.0000 0.91981  0.02548  0.47411  Biso   1.000  C
  H634     1.0000 0.93582  0.84242  0.45699  Biso   1.000  H
  H635     1.0000 0.00371  0.04361  0.55839  Biso   1.000  H
  C793     1.0000 0.98142  0.12119  0.56519  Biso   1.000  C
  C794     1.0000 0.93682  0.12228  0.51891  Biso   1.000  C
  H636     1.0000 0.94841  0.35891  0.54788  Biso   1.000  H
  C795     1.0000 0.90772  0.25518  0.61809  Biso   1.000  C
  C796     1.0000 0.93590  0.29190  0.44091  Biso   1.000  C
  H637     1.0000 0.96081  0.23531  0.40209  Biso   1.000  H
  C797     1.0000 0.90301  0.36410  0.47630  Biso   1.000  C
  H638     1.0000 0.89541  0.45651  0.41598  Biso   1.000  H
  H639     1.0000 0.90281  0.04639  0.46319  Biso   1.000  H
  C798     1.0000 0.95720  0.15248  0.55048  Biso   1.000  C
  H640     1.0000 0.99490  0.14069  0.58811  Biso   1.000  H
  C799     1.0000 0.91032  0.15121  0.50580  Biso   1.000  C
  C800     1.0000 0.88412  0.21450  0.62228  Biso   1.000  C
  H641     1.0000 0.93541  0.26518  0.46910  Biso   1.000  H
  C801     1.0000 0.88782  0.37260  0.50721  Biso   1.000  C
  H642     1.0000 0.95421  0.19439  0.56148  Biso   1.000  H
  C802     1.0000 0.88801  0.17438  0.49399  Biso   1.000  C
  C803     1.0000 0.88781  0.14890  0.62258  Biso   1.000  C
  C804     1.0000 0.85782  0.23800  0.62930  Biso   1.000  C
  C805     1.0000 0.86721  0.38260  0.54361  Biso   1.000  C
  C806     1.0000 0.86002  0.20001  0.47939  Biso   1.000  C
  H643     1.0000 0.90592  0.13290  0.61708  Biso   1.000  H
  C807     1.0000 0.86702  0.10661  0.63019  Biso   1.000  C
  C808     1.0000 0.83591  0.19770  0.63759  Biso   1.000  C
  H644     1.0000 0.85481  0.28232  0.62841  Biso   1.000  H
  C809     1.0000 0.87681  0.40139  0.59279  Biso   1.000  C
  C810     1.0000 0.83920  0.37151  0.53421  Biso   1.000  C
  C811     1.0000 0.85631  0.23890  0.43790  Biso   1.000  C
  C812     1.0000 0.83711  0.18439  0.50431  Biso   1.000  C
  C813     1.0000 0.84001  0.13068  0.63811  Biso   1.000  C
  C814     1.0000 0.87261  0.03521  0.63131  Biso   1.000  C
  C815     1.0000 0.80921  0.22469  0.64970  Biso   1.000  C
  C816     1.0000 0.85941  0.40899  0.63109  Biso   1.000  C
  H645     1.0000 0.89632  0.40922  0.59970  Biso   1.000  H
  C817     1.0000 0.82020  0.38091  0.57058  Biso   1.000  C
  H646     1.0000 0.83241  0.35702  0.50219  Biso   1.000  H
  C818     1.0000 0.83101  0.26169  0.41910  Biso   1.000  C
  H647     1.0000 0.87250  0.25032  0.42170  Biso   1.000  H
  C819     1.0000 0.81030  0.20751  0.48830  Biso   1.000  C
  H648     1.0000 0.83930  0.15782  0.53269  Biso   1.000  H
  O28      1.0000 0.81886  0.09359  0.64468  Biso   1.000  O
  C820     1.0000 0.85471  0.00269  0.59049  Biso   1.000  C
  C821     1.0000 0.90341  0.02081  0.62080  Biso   1.000  C
  C822     1.0000 0.86862  0.01100  0.68238  Biso   1.000  C
  H649     1.0000 0.80772  0.26929  0.65181  Biso   1.000  H
  N37      1.0000 0.78796  0.19118  0.65768  Biso   1.000  N
  C823     1.0000 0.83010  0.39898  0.61898  Biso   1.000  C
  C824     1.0000 0.87091  0.42579  0.68391  Biso   1.000  C
  C825     1.0000 0.79051  0.37071  0.55769  Biso   1.000  C
  C826     1.0000 0.80752  0.24579  0.44599  Biso   1.000  C
  C827     1.0000 0.82740  0.30398  0.37308  Biso   1.000  C
  C828     1.0000 0.78651  0.18779  0.51300  Biso   1.000  C
  H650     1.0000 0.85911  0.95753  0.59060  Biso   1.000  H
  H651     1.0000 0.85851  0.02091  0.55828  Biso   1.000  H
  H652     1.0000 0.83491  0.00849  0.59598  Biso   1.000  H
  H653     1.0000 0.90671  0.97522  0.62258  Biso   1.000  H
  H654     1.0000 0.90681  0.03601  0.58748  Biso   1.000  H
  H655     1.0000 0.91621  0.04219  0.64561  Biso   1.000  H
  H656     1.0000 0.87331  0.96602  0.68420  Biso   1.000  H
  H657     1.0000 0.88092  0.03431  0.70679  Biso   1.000  H
  H658     1.0000 0.84911  0.01699  0.68959  Biso   1.000  H
  C829     1.0000 0.76241  0.22172  0.67328  Biso   1.000  C
  O29      1.0000 0.81214  0.40781  0.65371  Biso   1.000  O
  C830     1.0000 0.86511  0.37260  0.71778  Biso   1.000  C
  C831     1.0000 0.90152  0.43541  0.68710  Biso   1.000  C
  C832     1.0000 0.85861  0.48671  0.70159  Biso   1.000  C
  H659     1.0000 0.78462  0.35641  0.52519  Biso   1.000  H
  N38      1.0000 0.77218  0.38010  0.58818  Biso   1.000  N
  O30      1.0000 0.78158  0.26849  0.43010  Biso   1.000  O
  C833     1.0000 0.80800  0.27340  0.33419  Biso   1.000  C
  C834     1.0000 0.85560  0.31318  0.34949  Biso   1.000  C
  C835     1.0000 0.81672  0.36901  0.38630  Biso   1.000  C
  H660     1.0000 0.78952  0.16070  0.54101  Biso   1.000  H
  N39      1.0000 0.76120  0.20440  0.49959  Biso   1.000  N
  C836     1.0000 0.73781  0.21511  0.63599  Biso   1.000  C
  H661     1.0000 0.76621  0.26712  0.67919  Biso   1.000  H
  H662     1.0000 0.75761  0.20279  0.70508  Biso   1.000  H
  H663     1.0000 0.84481  0.36519  0.71641  Biso   1.000  H
  H664     1.0000 0.87451  0.33442  0.70731  Biso   1.000  H
  H665     1.0000 0.87202  0.38341  0.75188  Biso   1.000  H
  H666     1.0000 0.90602  0.47020  0.66518  Biso   1.000  H
  H667     1.0000 0.90820  0.44570  0.72138  Biso   1.000  H
  H668     1.0000 0.91071  0.39681  0.67688  Biso   1.000  H
  H669     1.0000 0.83811  0.48299  0.70021  Biso   1.000  H
  H670     1.0000 0.86602  0.49521  0.73580  Biso   1.000  H
  H671     1.0000 0.86371  0.52150  0.68008  Biso   1.000  H
  C837     1.0000 0.74232  0.37099  0.57240  Biso   1.000  C
  H672     1.0000 0.81521  0.23172  0.32620  Biso   1.000  H
  H673     1.0000 0.78941  0.26882  0.34648  Biso   1.000  H
  H674     1.0000 0.80651  0.29968  0.30421  Biso   1.000  H
  H675     1.0000 0.86921  0.33319  0.37371  Biso   1.000  H
  H676     1.0000 0.86282  0.27212  0.33991  Biso   1.000  H
  H677     1.0000 0.85271  0.34022  0.32011  Biso   1.000  H
  H678     1.0000 0.82971  0.38822  0.41178  Biso   1.000  H
  H679     1.0000 0.81530  0.39572  0.35659  Biso   1.000  H
  H680     1.0000 0.79820  0.36491  0.39901  Biso   1.000  H
  C838     1.0000 0.73822  0.17868  0.52560  Biso   1.000  C
  N40      1.0000 0.73894  0.25801  0.59338  Biso   1.000  N
  H681     1.0000 0.73692  0.17098  0.62381  Biso   1.000  H
  H682     1.0000 0.72041  0.22351  0.65241  Biso   1.000  H
  C839     1.0000 0.73042  0.32158  0.60490  Biso   1.000  C
  H683     1.0000 0.74010  0.35731  0.53718  Biso   1.000  H
  H684     1.0000 0.73201  0.41130  0.57518  Biso   1.000  H
  C840     1.0000 0.72330  0.23371  0.54981  Biso   1.000  C
  H685     1.0000 0.74562  0.14838  0.55130  Biso   1.000  H
  H686     1.0000 0.72490  0.15612  0.50190  Biso   1.000  H
  H687     1.0000 0.73652  0.33088  0.64011  Biso   1.000  H
  H688     1.0000 0.70961  0.32408  0.60111  Biso   1.000  H
  H689     1.0000 0.72012  0.26821  0.52530  Biso   1.000  H
  H690     1.0000 0.70472  0.21912  0.55899  Biso   1.000  H
  C841     1.0000 0.52882  0.51829  0.82528  Biso   1.000  C
  H691     1.0000 0.53552  0.47671  0.81439  Biso   1.000  H
  H692     1.0000 0.51252  0.53079  0.80251  Biso   1.000  H
  C842     1.0000 0.51981  0.51248  0.87680  Biso   1.000  C
  N41      1.0000 0.55126  0.56501  0.82260  Biso   1.000  N
  H693     1.0000 0.51662  0.55519  0.89009  Biso   1.000  H
  H694     1.0000 0.50182  0.48931  0.87568  Biso   1.000  H
  N42      1.0000 0.54065  0.47959  0.91000  Biso   1.000  N
  C843     1.0000 0.57511  0.54920  0.81198  Biso   1.000  C
  C844     1.0000 0.53842  0.41059  0.90510  Biso   1.000  C
  C845     1.0000 0.53782  0.49861  0.96130  Biso   1.000  C
  C846     1.0000 0.59782  0.59460  0.80648  Biso   1.000  C
  H695     1.0000 0.57883  0.50569  0.80719  Biso   1.000  H
  C847     1.0000 0.56592  0.37722  0.91628  Biso   1.000  C
  H696     1.0000 0.53102  0.40011  0.87078  Biso   1.000  H
  H697     1.0000 0.52491  0.39478  0.92798  Biso   1.000  H
  C848     1.0000 0.55222  0.55741  0.97430  Biso   1.000  C
  H698     1.0000 0.51771  0.50342  0.96639  Biso   1.000  H
  H699     1.0000 0.54552  0.46491  0.98381  Biso   1.000  H
  C849     1.0000 0.59331  0.66119  0.81350  Biso   1.000  C
  C850     1.0000 0.62363  0.57379  0.79188  Biso   1.000  C
  H700     1.0000 0.57493  0.39280  0.94830  Biso   1.000  H
  H701     1.0000 0.56242  0.33149  0.91981  Biso   1.000  H
  N43      1.0000 0.58532  0.38709  0.87709  Biso   1.000  N
  H702     1.0000 0.54632  0.58979  0.94919  Biso   1.000  H
  N44      1.0000 0.58253  0.55099  0.97690  Biso   1.000  N
  H703     1.0000 0.54661  0.57209  0.00691  Biso   1.000  H
  O31      1.0000 0.56803  0.68040  0.82721  Biso   1.000  O
  C851     1.0000 0.61452  0.70499  0.80500  Biso   1.000  C
  C852     1.0000 0.64471  0.61622  0.78468  Biso   1.000  C
  H704     1.0000 0.62661  0.52999  0.78680  Biso   1.000  H
  C853     1.0000 0.61013  0.40842  0.88839  Biso   1.000  C
  C854     1.0000 0.59702  0.58639  0.94860  Biso   1.000  C
  C855     1.0000 0.63952  0.68120  0.79110  Biso   1.000  C
  C856     1.0000 0.61021  0.77649  0.80860  Biso   1.000  C
  C857     1.0000 0.67041  0.59710  0.76640  Biso   1.000  C
  C858     1.0000 0.63021  0.41569  0.85191  Biso   1.000  C
  H705     1.0000 0.61542  0.41960  0.92189  Biso   1.000  H
  C859     1.0000 0.62743  0.57681  0.95049  Biso   1.000  C
  H706     1.0000 0.58803  0.61740  0.92739  Biso   1.000  H
  H707     1.0000 0.65412  0.71009  0.78561  Biso   1.000  H
  C860     1.0000 0.58661  0.79508  0.77071  Biso   1.000  C
  C861     1.0000 0.60101  0.79183  0.86220  Biso   1.000  C
  C862     1.0000 0.63621  0.81358  0.80098  Biso   1.000  C
  C863     1.0000 0.69142  0.57978  0.74750  Biso   1.000  C
  C864     1.0000 0.62482  0.40092  0.80258  Biso   1.000  C
  C865     1.0000 0.65662  0.43938  0.86840  Biso   1.000  C
  C866     1.0000 0.64212  0.53381  0.98210  Biso   1.000  C
  C867     1.0000 0.64212  0.61909  0.92100  Biso   1.000  C
  H708     1.0000 0.56982  0.77040  0.77621  Biso   1.000  H
  H709     1.0000 0.58252  0.84020  0.77409  Biso   1.000  H
  H710     1.0000 0.59211  0.78682  0.73721  Biso   1.000  H
  H711     1.0000 0.58402  0.76799  0.86788  Biso   1.000  H
  H712     1.0000 0.61611  0.77998  0.88709  Biso   1.000  H
  H713     1.0000 0.59721  0.83709  0.86469  Biso   1.000  H
  H714     1.0000 0.65122  0.80089  0.82580  Biso   1.000  H
  H715     1.0000 0.64201  0.80532  0.76759  Biso   1.000  H
  H716     1.0000 0.63232  0.85870  0.80459  Biso   1.000  H
  C868     1.0000 0.71384  0.56072  0.71971  Biso   1.000  C
  O32      1.0000 0.59901  0.37869  0.78668  Biso   1.000  O
  C869     1.0000 0.64622  0.40559  0.76841  Biso   1.000  C
  C870     1.0000 0.67761  0.44740  0.83638  Biso   1.000  C
  H717     1.0000 0.66022  0.45019  0.90239  Biso   1.000  H
  C871     1.0000 0.67242  0.52919  0.98440  Biso   1.000  C
  O33      1.0000 0.62777  0.49559  0.01081  Biso   1.000  O
  C872     1.0000 0.67141  0.61560  0.92371  Biso   1.000  C
  H718     1.0000 0.63232  0.64911  0.89997  Biso   1.000  H
  C873     1.0000 0.70998  0.55982  0.66749  Biso   1.000  C
  C874     1.0000 0.73942  0.54080  0.74319  Biso   1.000  C
  C875     1.0000 0.67151  0.42980  0.78598  Biso   1.000  C
  C876     1.0000 0.63942  0.39138  0.71128  Biso   1.000  C
  C877     1.0000 0.70492  0.46991  0.85429  Biso   1.000  C
  C878     1.0000 0.68512  0.57251  0.95480  Biso   1.000  C
  C879     1.0000 0.68801  0.48558  0.02051  Biso   1.000  C
  C880     1.0000 0.68661  0.66138  0.89659  Biso   1.000  C
  C881     1.0000 0.68281  0.57379  0.64208  Biso   1.000  C
  C882     1.0000 0.73263  0.54321  0.63840  Biso   1.000  C
  C883     1.0000 0.76052  0.51942  0.71388  Biso   1.000  C
  H719     1.0000 0.74251  0.54179  0.77840  Biso   1.000  H
  H720     1.0000 0.68561  0.43508  0.76358  Biso   1.000  H
  C884     1.0000 0.66672  0.39752  0.68309  Biso   1.000  C
  C885     1.0000 0.61751  0.43721  0.69041  Biso   1.000  C
  C886     1.0000 0.62991  0.32158  0.70601  Biso   1.000  C
  C887     1.0000 0.72761  0.48601  0.87219  Biso   1.000  C
  H721     1.0000 0.70501  0.57233  0.95629  Biso   1.000  H
  C888     1.0000 0.71940  0.48922  0.01642  Biso   1.000  C
  C889     1.0000 0.68320  0.50710  0.07370  Biso   1.000  C
  C890     1.0000 0.67831  0.41640  0.01130  Biso   1.000  C
  C891     1.0000 0.69791  0.70050  0.87349  Biso   1.000  C
  C892     1.0000 0.67841  0.56548  0.59331  Biso   1.000  C
  H722     1.0000 0.66801  0.58889  0.66050  Biso   1.000  H
  C893     1.0000 0.72831  0.54552  0.58488  Biso   1.000  C
  C894     1.0000 0.75712  0.52060  0.66329  Biso   1.000  C
  H723     1.0000 0.77751  0.50361  0.72978  Biso   1.000  H
  H724     1.0000 0.68081  0.36750  0.69698  Biso   1.000  H
  H725     1.0000 0.66222  0.38831  0.64780  Biso   1.000  H
  H726     1.0000 0.67401  0.44061  0.68680  Biso   1.000  H
  H727     1.0000 0.62451  0.48039  0.69468  Biso   1.000  H
  H728     1.0000 0.61312  0.42862  0.65490  Biso   1.000  H
  H729     1.0000 0.60041  0.43230  0.70790  Biso   1.000  H
  H730     1.0000 0.64490  0.29402  0.72020  Biso   1.000  H
  H731     1.0000 0.61312  0.31521  0.72380  Biso   1.000  H
  H732     1.0000 0.62572  0.31148  0.67079  Biso   1.000  H
  C895     1.0000 0.75436  0.50441  0.89570  Biso   1.000  C
  H733     1.0000 0.72353  0.47732  0.98270  Biso   1.000  H
  H734     1.0000 0.72900  0.46029  0.04042  Biso   1.000  H
  H735     1.0000 0.72590  0.53240  0.02329  Biso   1.000  H
  H736     1.0000 0.69331  0.47888  0.09770  Biso   1.000  H
  H737     1.0000 0.69021  0.55029  0.07879  Biso   1.000  H
  H738     1.0000 0.66310  0.50592  0.07849  Biso   1.000  H
  H739     1.0000 0.68202  0.40379  0.97750  Biso   1.000  H
  H740     1.0000 0.68871  0.38850  0.03522  Biso   1.000  H
  H741     1.0000 0.65821  0.41300  0.01531  Biso   1.000  H
  C896     1.0000 0.71071  0.74959  0.84678  Biso   1.000  C
  C897     1.0000 0.70112  0.54859  0.56311  Biso   1.000  C
  H742     1.0000 0.66001  0.57072  0.57778  Biso   1.000  H
  C898     1.0000 0.75091  0.54151  0.55141  Biso   1.000  C
  H743     1.0000 0.77181  0.50569  0.64479  Biso   1.000  H
  C899     1.0000 0.77399  0.45542  0.91030  Biso   1.000  C
  C900     1.0000 0.76122  0.56539  0.90321  Biso   1.000  C
  C901     1.0000 0.71118  0.81283  0.86539  Biso   1.000  C
  C902     1.0000 0.72238  0.73769  0.80288  Biso   1.000  C
  C903     1.0000 0.69451  0.53348  0.51219  Biso   1.000  C
  C904     1.0000 0.77970  0.56048  0.56371  Biso   1.000  C
  C905     1.0000 0.74370  0.51772  0.50279  Biso   1.000  C
  C906     1.0000 0.76612  0.38949  0.90648  Biso   1.000  C
  C907     1.0000 0.80095  0.47180  0.93118  Biso   1.000  C
  C908     1.0000 0.78691  0.58309  0.92728  Biso   1.000  C
  H744     1.0000 0.74832  0.59720  0.89180  Biso   1.000  H
  C909     1.0000 0.69641  0.82769  0.90848  Biso   1.000  C
  C910     1.0000 0.72479  0.86030  0.84099  Biso   1.000  C
  C911     1.0000 0.73359  0.78512  0.77599  Biso   1.000  C
  H745     1.0000 0.72271  0.69560  0.79088  Biso   1.000  H
  C912     1.0000 0.71521  0.51489  0.48500  Biso   1.000  C
  H746     1.0000 0.67581  0.53660  0.49770  Biso   1.000  H
  C913     1.0000 0.78811  0.60730  0.60141  Biso   1.000  C
  C914     1.0000 0.80081  0.53599  0.53540  Biso   1.000  C
  C915     1.0000 0.76590  0.49842  0.47341  Biso   1.000  C
  C916     1.0000 0.78462  0.34551  0.92560  Biso   1.000  C
  H747     1.0000 0.74831  0.37722  0.89099  Biso   1.000  H
  C917     1.0000 0.82181  0.42192  0.94340  Biso   1.000  C
  C918     1.0000 0.80642  0.53660  0.94258  Biso   1.000  C
  H748     1.0000 0.79111  0.62641  0.93329  Biso   1.000  H
  C919     1.0000 0.69512  0.89051  0.92278  Biso   1.000  C
  H749     1.0000 0.68791  0.79551  0.92650  Biso   1.000  H
  C920     1.0000 0.72727  0.92321  0.86250  Biso   1.000  C
  C921     1.0000 0.73461  0.84610  0.79359  Biso   1.000  C
  H750     1.0000 0.74071  0.77583  0.74490  Biso   1.000  H
  H751     1.0000 0.71050  0.49922  0.45238  Biso   1.000  H
  C922     1.0000 0.76924  0.64958  0.62139  Biso   1.000  C
  C923     1.0000 0.81678  0.61249  0.61801  Biso   1.000  C
  C924     1.0000 0.82971  0.54500  0.55200  Biso   1.000  C
  C925     1.0000 0.79272  0.50271  0.49009  Biso   1.000  C
  H752     1.0000 0.76132  0.48190  0.44109  Biso   1.000  H
  C926     1.0000 0.81082  0.36000  0.94499  Biso   1.000  C
  H753     1.0000 0.77902  0.30252  0.92531  Biso   1.000  H
  C927     1.0000 0.85032  0.43221  0.95658  Biso   1.000  C
  H754     1.0000 0.82352  0.54821  0.96078  Biso   1.000  H
  C928     1.0000 0.71032  0.93879  0.90031  Biso   1.000  C
  H755     1.0000 0.68363  0.90151  0.94860  Biso   1.000  H
  C929     1.0000 0.74632  0.97220  0.84738  Biso   1.000  C
  H756     1.0000 0.74182  0.87881  0.77428  Biso   1.000  H
  C930     1.0000 0.77810  0.69012  0.65891  Biso   1.000  C
  H757     1.0000 0.75012  0.65001  0.60869  Biso   1.000  H
  C931     1.0000 0.82510  0.65402  0.65831  Biso   1.000  C
  C932     1.0000 0.83721  0.57898  0.59179  Biso   1.000  C
  H758     1.0000 0.84370  0.52612  0.53388  Biso   1.000  H
  H759     1.0000 0.80671  0.48360  0.47188  Biso   1.000  H
  C933     1.0000 0.82882  0.31252  0.96958  Biso   1.000  C
  C934     1.0000 0.86738  0.48789  0.94187  Biso   1.000  C
  C935     1.0000 0.86491  0.38770  0.98619  Biso   1.000  C
  C936     1.0000 0.70711  0.00340  0.91610  Biso   1.000  C
  C937     1.0000 0.77179  0.96130  0.82231  Biso   1.000  C
  C938     1.0000 0.73992  0.03591  0.85889  Biso   1.000  C
  C939     1.0000 0.80532  0.69182  0.67930  Biso   1.000  C
  H760     1.0000 0.76491  0.71830  0.67128  Biso   1.000  H
  C940     1.0000 0.85429  0.65661  0.67718  Biso   1.000  C
  H761     1.0000 0.85651  0.58139  0.60330  Biso   1.000  H
  C941     1.0000 0.85383  0.32422  0.99168  Biso   1.000  C
  H762     1.0000 0.82211  0.27028  0.96981  Biso   1.000  H
  C942     1.0000 0.86058  0.52320  0.89671  Biso   1.000  C
  C943     1.0000 0.89191  0.50210  0.97129  Biso   1.000  C
  C944     1.0000 0.89201  0.40181  0.01182  Biso   1.000  C
  C945     1.0000 0.72002  0.04899  0.89251  Biso   1.000  C
  H763     1.0000 0.69612  0.01321  0.94280  Biso   1.000  H
  C946     1.0000 0.78779  0.90259  0.82691  Biso   1.000  C
  C947     1.0000 0.78241  0.01029  0.79560  Biso   1.000  C
  C948     1.0000 0.75401  0.08679  0.83408  Biso   1.000  C
  H764     1.0000 0.81061  0.71801  0.70701  Biso   1.000  H
  C949     1.0000 0.87851  0.65628  0.68911  Biso   1.000  C
  H765     1.0000 0.86411  0.29270  0.01041  Biso   1.000  H
  C950     1.0000 0.84096  0.50201  0.85711  Biso   1.000  C
  C951     1.0000 0.87475  0.57969  0.88779  Biso   1.000  C
  C952     1.0000 0.90593  0.56241  0.96130  Biso   1.000  C
  C953     1.0000 0.90361  0.46081  0.00669  Biso   1.000  C
  H766     1.0000 0.90160  0.37071  0.03191  Biso   1.000  H
  H767     1.0000 0.71553  0.09170  0.89890  Biso   1.000  H
  C954     1.0000 0.78521  0.85780  0.86380  Biso   1.000  C
  C955     1.0000 0.80870  0.89141  0.79259  Biso   1.000  C
  C956     1.0000 0.80471  0.99920  0.76369  Biso   1.000  C
  C957     1.0000 0.77222  0.07372  0.80080  Biso   1.000  C
  H768     1.0000 0.75021  0.12950  0.84188  Biso   1.000  H
  C958     1.0000 0.90843  0.65482  0.70069  Biso   1.000  C
  C959     1.0000 0.83421  0.53712  0.81681  Biso   1.000  C
  H769     1.0000 0.83253  0.46170  0.85971  Biso   1.000  H
  C960     1.0000 0.86770  0.61650  0.84508  Biso   1.000  C
  C961     1.0000 0.89731  0.59720  0.92319  Biso   1.000  C
  H770     1.0000 0.92142  0.57601  0.98281  Biso   1.000  H
  H771     1.0000 0.91971  0.47298  0.02749  Biso   1.000  H
  C962     1.0000 0.80029  0.80249  0.86569  Biso   1.000  C
  H772     1.0000 0.77262  0.86559  0.88861  Biso   1.000  H
  C963     1.0000 0.82312  0.83312  0.79318  Biso   1.000  C
  C964     1.0000 0.81581  0.94101  0.76079  Biso   1.000  C
  H773     1.0000 0.81152  0.03280  0.74479  Biso   1.000  H
  H774     1.0000 0.77841  0.10642  0.78018  Biso   1.000  H
  C965     1.0000 0.92010  0.61532  0.73828  Biso   1.000  C
  C966     1.0000 0.92589  0.69140  0.67410  Biso   1.000  C
  C967     1.0000 0.84741  0.59569  0.81109  Biso   1.000  C
  H775     1.0000 0.82052  0.52249  0.79211  Biso   1.000  H
  C968     1.0000 0.88232  0.67379  0.83791  Biso   1.000  C
  H776     1.0000 0.90642  0.63632  0.91881  Biso   1.000  H
  C969     1.0000 0.81842  0.78800  0.82970  Biso   1.000  C
  H777     1.0000 0.79823  0.77370  0.89210  Biso   1.000  H
  C970     1.0000 0.84241  0.82151  0.75641  Biso   1.000  C
  H778     1.0000 0.82880  0.93298  0.73680  Biso   1.000  H
  C971     1.0000 0.94962  0.60999  0.74880  Biso   1.000  C
  H779     1.0000 0.90802  0.59139  0.75730  Biso   1.000  H
  C972     1.0000 0.95441  0.68852  0.68320  Biso   1.000  C
  H780     1.0000 0.91792  0.71901  0.64910  Biso   1.000  H
  H781     1.0000 0.84201  0.62098  0.78290  Biso   1.000  H
  C973     1.0000 0.89540  0.72160  0.83040  Biso   1.000  C
  H782     1.0000 0.82752  0.74812  0.82970  Biso   1.000  H
  C974     1.0000 0.85814  0.81901  0.72488  Biso   1.000  C
  C975     1.0000 0.96661  0.64892  0.71960  Biso   1.000  C
  C976     1.0000 0.96151  0.56690  0.78951  Biso   1.000  C
  C977     1.0000 0.97232  0.72670  0.65319  Biso   1.000  C
  C978     1.0000 0.91269  0.77460  0.82338  Biso   1.000  C
  C979     1.0000 0.87705  0.82161  0.68599  Biso   1.000  C
  O34      1.0000 0.99460  0.64670  0.72970  Biso   1.000  O
  C980     1.0000 0.97822  0.51300  0.76380  Biso   1.000  C
  C981     1.0000 0.93861  0.53169  0.81551  Biso   1.000  C
  C982     1.0000 0.97932  0.60479  0.83070  Biso   1.000  C
  H783     1.0000 0.96331  0.75412  0.62901  Biso   1.000  H
  N45      1.0000 0.99846  0.72580  0.65701  Biso   1.000  N
  C983     1.0000 0.90465  0.83609  0.83791  Biso   1.000  C
  C984     1.0000 0.93861  0.76728  0.80540  Biso   1.000  C
  C985     1.0000 0.86922  0.80268  0.63770  Biso   1.000  C
  C986     1.0000 0.90337  0.85030  0.69698  Biso   1.000  C
  H784     1.0000 0.98631  0.48369  0.78910  Biso   1.000  H
  H785     1.0000 0.96542  0.48992  0.73999  Biso   1.000  H
  H786     1.0000 0.99331  0.53188  0.74620  Biso   1.000  H
  H787     1.0000 0.94741  0.50441  0.84158  Biso   1.000  H
  H788     1.0000 0.92643  0.56232  0.83029  Biso   1.000  H
  H789     1.0000 0.92742  0.50592  0.79118  Biso   1.000  H
  H790     1.0000 0.98672  0.57582  0.85678  Biso   1.000  H
  H791     1.0000 0.99492  0.62589  0.81599  Biso   1.000  H
  H792     1.0000 0.96741  0.63651  0.84508  Biso   1.000  H
  C987     1.0000 0.01450  0.76228  0.62499  Biso   1.000  C
  C988     1.0000 0.92164  0.88881  0.83538  Biso   1.000  C
  H793     1.0000 0.88663  0.84143  0.84979  Biso   1.000  H
  C989     1.0000 0.95663  0.81882  0.80251  Biso   1.000  C
  H794     1.0000 0.94432  0.72689  0.79478  Biso   1.000  H
  C990     1.0000 0.88637  0.81051  0.59881  Biso   1.000  C
  H795     1.0000 0.85131  0.78361  0.63090  Biso   1.000  H
  C991     1.0000 0.92059  0.85969  0.65920  Biso   1.000  C
  H796     1.0000 0.90912  0.86299  0.72989  Biso   1.000  H
  C992     1.0000 0.03461  0.80570  0.65408  Biso   1.000  C
  H797     1.0000 0.00161  0.78763  0.60230  Biso   1.000  H
  H798     1.0000 0.02511  0.73359  0.60449  Biso   1.000  H
  C993     1.0000 0.94836  0.87998  0.81748  Biso   1.000  C
  C994     1.0000 0.91211  0.95488  0.85009  Biso   1.000  C
  C995     1.0000 0.98428  0.80839  0.78390  Biso   1.000  C
  C996     1.0000 0.91297  0.84218  0.61028  Biso   1.000  C
  C997     1.0000 0.87782  0.78810  0.54599  Biso   1.000  C
  C998     1.0000 0.94717  0.89443  0.67128  Biso   1.000  C
  H799     1.0000 0.04520  0.78121  0.68060  Biso   1.000  H
  H800     1.0000 0.04812  0.82269  0.63179  Biso   1.000  H
  N46      1.0000 0.02055  0.85780  0.67648  Biso   1.000  N
  O35      1.0000 0.96605  0.92822  0.81421  Biso   1.000  O
  C999     1.0000 0.88231  0.94969  0.86758  Biso   1.000  C
  C1000    1.0000 0.91251  0.99962  0.80708  Biso   1.000  C
  C1001    1.0000 0.93041  0.97829  0.89619  Biso   1.000  C
  H801     1.0000 0.98871  0.76771  0.77201  Biso   1.000  H
  N47      1.0000 0.00247  0.85200  0.78308  Biso   1.000  N
  O36      1.0000 0.92929  0.85332  0.57381  Biso   1.000  O
  C1002    1.0000 0.87321  0.84501  0.51059  Biso   1.000  C
  C1003    1.0000 0.90010  0.74312  0.52760  Biso   1.000  C
  C1004    1.0000 0.84951  0.75209  0.54339  Biso   1.000  C
  H802     1.0000 0.95201  0.90622  0.70478  Biso   1.000  H
  N48      1.0000 0.96358  0.90892  0.63889  Biso   1.000  N
  C1005    1.0000 0.03591  0.87980  0.72209  Biso   1.000  C
  C1006    1.0000 0.01470  0.91009  0.64178  Biso   1.000  C
  H803     1.0000 0.88243  0.92038  0.89570  Biso   1.000  H
  H804     1.0000 0.87601  0.99141  0.87799  Biso   1.000  H
  H805     1.0000 0.86942  0.93412  0.84028  Biso   1.000  H
  H806     1.0000 0.89981  0.98410  0.77940  Biso   1.000  H
  H807     1.0000 0.90632  0.04139  0.81718  Biso   1.000  H
  H808     1.0000 0.93162  0.00241  0.79660  Biso   1.000  H
  H809     1.0000 0.92951  0.94780  0.92319  Biso   1.000  H
  H810     1.0000 0.94992  0.98282  0.88790  Biso   1.000  H
  H811     1.0000 0.92343  0.01930  0.90670  Biso   1.000  H
  C1007    1.0000 0.03022  0.83751  0.76599  Biso   1.000  C
  H812     1.0000 0.86770  0.82982  0.47690  Biso   1.000  H
  H813     1.0000 0.85832  0.87191  0.52188  Biso   1.000  H
  H814     1.0000 0.89060  0.86941  0.51048  Biso   1.000  H
  H815     1.0000 0.89421  0.72929  0.49369  Biso   1.000  H
  H816     1.0000 0.91811  0.76502  0.52779  Biso   1.000  H
  H817     1.0000 0.90202  0.70622  0.54948  Biso   1.000  H
  H818     1.0000 0.84461  0.73840  0.50918  Biso   1.000  H
  H819     1.0000 0.85130  0.71518  0.56530  Biso   1.000  H
  H820     1.0000 0.83482  0.78012  0.55409  Biso   1.000  H
  C1008    1.0000 0.98820  0.94610  0.65348  Biso   1.000  C
  H821     1.0000 0.03012  0.92350  0.72911  Biso   1.000  H
  H822     1.0000 0.05622  0.87998  0.71771  Biso   1.000  H
  H823     1.0000 0.01222  0.89348  0.60750  Biso   1.000  H
  H824     1.0000 0.03092  0.93940  0.64379  Biso   1.000  H
  H825     1.0000 0.03092  0.79258  0.75578  Biso   1.000  H
  H826     1.0000 0.04491  0.84431  0.79341  Biso   1.000  H
  H827     1.0000 0.98891  0.95521  0.68959  Biso   1.000  H
  H828     1.0000 0.98722  0.98693  0.63551  Biso   1.000  H
