data_image0
_cell_length_a       47.641
_cell_length_b       21.17
_cell_length_c       27.04
_cell_angle_alpha    90
_cell_angle_beta     94.9
_cell_angle_gamma    90

_symmetry_space_group_name_H-M    "P 1"
_symmetry_int_tables_number       1

loop_
  _symmetry_equiv_pos_as_xyz
  'x, y, z'

loop_
  _atom_site_label
  _atom_site_occupancy
  _atom_site_fract_x
  _atom_site_fract_y
  _atom_site_fract_z
  _atom_site_thermal_displace_type
  _atom_site_B_iso_or_equiv
  _atom_site_type_symbol
  C1       1.0000 0.59718  0.54922  0.52262  Biso   1.000  C
  C2       1.0000 0.57907  0.56401  0.56052  Biso   1.000  C
  C3       1.0000 0.61307  0.53921  0.49111  Biso   1.000  C
  C4       1.0000 0.57757  0.52272  0.60231  Biso   1.000  C
  C5       1.0000 0.56447  0.61993  0.55892  Biso   1.000  C
  C6       1.0000 0.63278  0.53070  0.45351  Biso   1.000  C
  C7       1.0000 0.56038  0.53689  0.64121  Biso   1.000  C
  C8       1.0000 0.59448  0.46490  0.60691  Biso   1.000  C
  C9       1.0000 0.54918  0.63793  0.59901  Biso   1.000  C
  H1       1.0000 0.56468  0.64662  0.53071  Biso   1.000  H
  C10      1.0000 0.62298  0.51082  0.40540  Biso   1.000  C
  C11      1.0000 0.66069  0.54143  0.46449  Biso   1.000  C
  C12      1.0000 0.55847  0.49523  0.68271  Biso   1.000  C
  C13      1.0000 0.54697  0.59830  0.63821  Biso   1.000  C
  C14      1.0000 0.59668  0.43420  0.64960  Biso   1.000  C
  H2       1.0000 0.60377  0.44969  0.57948  Biso   1.000  H
  H3       1.0000 0.54018  0.67803  0.59860  Biso   1.000  H
  C15      1.0000 0.63970  0.50279  0.36791  Biso   1.000  C
  H4       1.0000 0.60348  0.50250  0.39891  Biso   1.000  H
  C16      1.0000 0.67997  0.53203  0.42760  Biso   1.000  C
  H5       1.0000 0.66738  0.55513  0.49679  Biso   1.000  H
  C17      1.0000 0.53918  0.50071  0.72042  Biso   1.000  C
  C18      1.0000 0.57958  0.44743  0.68791  Biso   1.000  C
  H6       1.0000 0.53638  0.61143  0.66452  Biso   1.000  H
  H7       1.0000 0.61047  0.40170  0.65439  Biso   1.000  H
  C19      1.0000 0.66968  0.51389  0.38031  Biso   1.000  C
  C20      1.0000 0.62869  0.48611  0.31539  Biso   1.000  C
  C21      1.0000 0.70949  0.54199  0.44111  Biso   1.000  C
  C22      1.0000 0.51196  0.53222  0.71541  Biso   1.000  C
  C23      1.0000 0.54777  0.47539  0.76689  Biso   1.000  C
  C24      1.0000 0.58426  0.41493  0.73512  Biso   1.000  C
  O1       1.0000 0.68764  0.50501  0.34501  Biso   1.000  O
  C25      1.0000 0.59708  0.47492  0.31290  Biso   1.000  C
  C26      1.0000 0.63379  0.54133  0.28031  Biso   1.000  C
  C27      1.0000 0.64138  0.42612  0.29702  Biso   1.000  C
  N1       1.0000 0.72799  0.53240  0.40960  Biso   1.000  N
  H8       1.0000 0.71538  0.55583  0.47381  Biso   1.000  H
  C28      1.0000 0.49447  0.53741  0.66809  Biso   1.000  C
  C29      1.0000 0.50037  0.55413  0.75850  Biso   1.000  C
  C30      1.0000 0.53436  0.49821  0.81032  Biso   1.000  C
  C31      1.0000 0.56926  0.43340  0.77469  Biso   1.000  C
  H9       1.0000 0.59747  0.38129  0.73902  Biso   1.000  H
  H10      1.0000 0.58778  0.51271  0.32448  Biso   1.000  H
  H11      1.0000 0.58999  0.46580  0.27861  Biso   1.000  H
  H12      1.0000 0.59318  0.43892  0.33410  Biso   1.000  H
  H13      1.0000 0.62549  0.57992  0.29271  Biso   1.000  H
  H14      1.0000 0.65419  0.54743  0.27902  Biso   1.000  H
  H15      1.0000 0.62519  0.53170  0.24702  Biso   1.000  H
  H16      1.0000 0.63350  0.41762  0.26302  Biso   1.000  H
  H17      1.0000 0.66190  0.43089  0.29761  Biso   1.000  H
  H18      1.0000 0.63699  0.39093  0.31862  Biso   1.000  H
  C32      1.0000 0.75799  0.54209  0.42489  Biso   1.000  C
  C33      1.0000 0.46997  0.57553  0.66582  Biso   1.000  C
  C34      1.0000 0.49928  0.50132  0.62622  Biso   1.000  C
  C35      1.0000 0.47477  0.59051  0.75312  Biso   1.000  C
  C36      1.0000 0.51248  0.54029  0.80401  Biso   1.000  C
  H19      1.0000 0.54086  0.48399  0.84261  Biso   1.000  H
  H20      1.0000 0.57396  0.41672  0.80702  Biso   1.000  H
  C37      1.0000 0.77029  0.59183  0.39419  Biso   1.000  C
  H21      1.0000 0.76828  0.50203  0.42151  Biso   1.000  H
  H22      1.0000 0.76027  0.55479  0.46030  Biso   1.000  H
  C38      1.0000 0.45327  0.58441  0.61842  Biso   1.000  C
  C39      1.0000 0.46098  0.60359  0.70899  Biso   1.000  C
  C40      1.0000 0.48308  0.50803  0.58212  Biso   1.000  C
  H23      1.0000 0.51417  0.47133  0.62841  Biso   1.000  H
  H24      1.0000 0.46728  0.60590  0.78219  Biso   1.000  H
  H25      1.0000 0.50566  0.56013  0.83229  Biso   1.000  H
  N2       1.0000 0.76068  0.65621  0.40459  Biso   1.000  N
  H26      1.0000 0.79109  0.59032  0.40009  Biso   1.000  H
  H27      1.0000 0.76538  0.58219  0.35871  Biso   1.000  H
  C41      1.0000 0.42877  0.62282  0.61790  Biso   1.000  C
  C42      1.0000 0.46027  0.55102  0.57871  Biso   1.000  C
  H28      1.0000 0.44537  0.63160  0.70691  Biso   1.000  H
  H29      1.0000 0.48718  0.48389  0.55398  Biso   1.000  H
  C43      1.0000 0.77748  0.67860  0.44809  Biso   1.000  C
  C44      1.0000 0.76108  0.69721  0.36179  Biso   1.000  C
  C45      1.0000 0.40808  0.65650  0.61790  Biso   1.000  C
  H30      1.0000 0.44957  0.55650  0.54771  Biso   1.000  H
  C46      1.0000 0.76257  0.73340  0.47440  Biso   1.000  C
  H31      1.0000 0.79589  0.69372  0.43821  Biso   1.000  H
  H32      1.0000 0.78108  0.64322  0.47162  Biso   1.000  H
  C47      1.0000 0.73680  0.69093  0.32500  Biso   1.000  C
  H33      1.0000 0.77850  0.68833  0.34520  Biso   1.000  H
  H34      1.0000 0.76219  0.74162  0.37341  Biso   1.000  H
  C48      1.0000 0.38448  0.69684  0.62269  Biso   1.000  C
  N3       1.0000 0.73938  0.70812  0.49990  Biso   1.000  N
  H35      1.0000 0.77628  0.75451  0.49860  Biso   1.000  H
  H36      1.0000 0.75547  0.76509  0.44961  Biso   1.000  H
  H37      1.0000 0.73298  0.64539  0.31910  Biso   1.000  H
  H38      1.0000 0.74160  0.70983  0.29331  Biso   1.000  H
  N4       1.0000 0.71099  0.72149  0.34052  Biso   1.000  N
  C49      1.0000 0.35859  0.67331  0.63011  Biso   1.000  C
  C50      1.0000 0.38858  0.76372  0.62310  Biso   1.000  C
  C51      1.0000 0.71357  0.72504  0.48550  Biso   1.000  C
  C52      1.0000 0.69018  0.68701  0.34891  Biso   1.000  C
  C53      1.0000 0.33657  0.71351  0.63932  Biso   1.000  C
  H39      1.0000 0.35558  0.62891  0.62911  Biso   1.000  H
  C54      1.0000 0.36757  0.80642  0.63048  Biso   1.000  C
  H40      1.0000 0.40669  0.77940  0.61779  Biso   1.000  H
  C55      1.0000 0.69008  0.70472  0.51100  Biso   1.000  C
  H41      1.0000 0.71038  0.75154  0.45729  Biso   1.000  H
  C56      1.0000 0.66338  0.71351  0.36071  Biso   1.000  C
  H42      1.0000 0.69208  0.64242  0.34739  Biso   1.000  H
  C57      1.0000 0.30977  0.68701  0.65109  Biso   1.000  C
  C58      1.0000 0.34098  0.78162  0.63809  Biso   1.000  C
  C59      1.0000 0.37277  0.87700  0.63048  Biso   1.000  C
  C60      1.0000 0.66328  0.72844  0.49512  Biso   1.000  C
  C61      1.0000 0.69368  0.66599  0.55280  Biso   1.000  C
  C62      1.0000 0.64139  0.67331  0.36992  Biso   1.000  C
  C63      1.0000 0.65899  0.78162  0.36190  Biso   1.000  C
  N5       1.0000 0.28898  0.72149  0.65951  Biso   1.000  N
  H43      1.0000 0.30787  0.64242  0.65261  Biso   1.000  H
  O2       1.0000 0.31893  0.81790  0.64522  Biso   1.000  O
  C64      1.0000 0.35548  0.90680  0.58509  Biso   1.000  C
  C65      1.0000 0.36977  0.90241  0.68071  Biso   1.000  C
  C66      1.0000 0.40358  0.89084  0.61909  Biso   1.000  C
  C67      1.0000 0.63997  0.71190  0.52039  Biso   1.000  C
  H44      1.0000 0.66098  0.75560  0.46709  Biso   1.000  H
  C68      1.0000 0.67047  0.64960  0.57882  Biso   1.000  C
  O3       1.0000 0.71957  0.64369  0.56802  Biso   1.000  O
  C69      1.0000 0.61549  0.69684  0.37730  Biso   1.000  C
  H45      1.0000 0.64438  0.62891  0.37092  Biso   1.000  H
  C70      1.0000 0.63238  0.80642  0.36951  Biso   1.000  C
  O4       1.0000 0.68104  0.81790  0.35481  Biso   1.000  O
  C71      1.0000 0.26318  0.69093  0.67499  Biso   1.000  C
  H46      1.0000 0.35988  0.88484  0.55469  Biso   1.000  H
  H47      1.0000 0.33538  0.90293  0.58921  Biso   1.000  H
  H48      1.0000 0.36048  0.95163  0.58260  Biso   1.000  H
  H49      1.0000 0.37318  0.94813  0.68082  Biso   1.000  H
  H50      1.0000 0.35067  0.89400  0.68991  Biso   1.000  H
  H51      1.0000 0.38356  0.88210  0.70461  Biso   1.000  H
  H52      1.0000 0.40668  0.87473  0.58602  Biso   1.000  H
  H53      1.0000 0.40697  0.93651  0.62020  Biso   1.000  H
  H54      1.0000 0.41668  0.86991  0.64392  Biso   1.000  H
  C72      1.0000 0.61277  0.73821  0.50529  Biso   1.000  C
  C73      1.0000 0.64439  0.67312  0.56119  Biso   1.000  C
  C74      1.0000 0.67378  0.60619  0.62451  Biso   1.000  C
  C75      1.0000 0.59187  0.65650  0.38209  Biso   1.000  C
  C76      1.0000 0.61137  0.76372  0.37690  Biso   1.000  C
  C77      1.0000 0.62718  0.87700  0.36951  Biso   1.000  C
  C78      1.0000 0.23887  0.69721  0.63821  Biso   1.000  C
  H55      1.0000 0.26697  0.64539  0.68089  Biso   1.000  H
  H56      1.0000 0.25837  0.70983  0.70669  Biso   1.000  H
  C79      1.0000 0.59028  0.75909  0.49389  Biso   1.000  C
  H57      1.0000 0.62847  0.66169  0.57841  Biso   1.000  H
  C80      1.0000 0.68397  0.54053  0.61052  Biso   1.000  C
  C81      1.0000 0.69427  0.63949  0.66500  Biso   1.000  C
  C82      1.0000 0.64568  0.59660  0.64641  Biso   1.000  C
  C83      1.0000 0.57118  0.62282  0.38209  Biso   1.000  C
  H58      1.0000 0.59329  0.77940  0.38220  Biso   1.000  H
  C84      1.0000 0.64449  0.90680  0.41490  Biso   1.000  C
  C85      1.0000 0.63018  0.90241  0.31929  Biso   1.000  C
  C86      1.0000 0.59639  0.89084  0.38090  Biso   1.000  C
  N6       1.0000 0.23927  0.65621  0.59541  Biso   1.000  N
  H59      1.0000 0.22148  0.68833  0.65480  Biso   1.000  H
  H60      1.0000 0.23778  0.74162  0.62659  Biso   1.000  H
  C87      1.0000 0.56348  0.78961  0.48101  Biso   1.000  C
  H61      1.0000 0.70208  0.54431  0.59611  Biso   1.000  H
  H62      1.0000 0.68617  0.51389  0.64021  Biso   1.000  H
  H63      1.0000 0.67007  0.52140  0.58609  Biso   1.000  H
  H64      1.0000 0.71257  0.64629  0.65190  Biso   1.000  H
  H65      1.0000 0.68626  0.68030  0.67380  Biso   1.000  H
  H66      1.0000 0.69667  0.61271  0.69459  Biso   1.000  H
  H67      1.0000 0.63828  0.63751  0.65602  Biso   1.000  H
  H68      1.0000 0.63229  0.57671  0.62161  Biso   1.000  H
  H69      1.0000 0.64836  0.56920  0.67569  Biso   1.000  H
  C88      1.0000 0.54668  0.58441  0.38161  Biso   1.000  C
  H70      1.0000 0.64009  0.88484  0.44530  Biso   1.000  H
  H71      1.0000 0.66459  0.90293  0.41078  Biso   1.000  H
  H72      1.0000 0.63949  0.95163  0.41739  Biso   1.000  H
  H73      1.0000 0.62680  0.94813  0.31921  Biso   1.000  H
  H74      1.0000 0.64928  0.89400  0.31012  Biso   1.000  H
  H75      1.0000 0.61639  0.88210  0.29538  Biso   1.000  H
  H76      1.0000 0.59328  0.87473  0.41401  Biso   1.000  H
  H77      1.0000 0.59298  0.93651  0.37979  Biso   1.000  H
  H78      1.0000 0.58329  0.86991  0.35611  Biso   1.000  H
  C89      1.0000 0.22247  0.67860  0.55191  Biso   1.000  C
  C90      1.0000 0.22968  0.59183  0.60580  Biso   1.000  C
  C91      1.0000 0.55807  0.85333  0.49749  Biso   1.000  C
  C92      1.0000 0.54269  0.75791  0.45031  Biso   1.000  C
  C93      1.0000 0.52998  0.57553  0.33421  Biso   1.000  C
  C94      1.0000 0.53968  0.55102  0.42129  Biso   1.000  C
  C95      1.0000 0.23738  0.73340  0.52559  Biso   1.000  C
  H79      1.0000 0.20408  0.69372  0.56182  Biso   1.000  H
  H80      1.0000 0.21888  0.64322  0.52841  Biso   1.000  H
  H81      1.0000 0.20887  0.59032  0.59990  Biso   1.000  H
  H82      1.0000 0.23457  0.58219  0.64129  Biso   1.000  H
  C96      1.0000 0.24198  0.54209  0.57510  Biso   1.000  C
  C97      1.0000 0.53208  0.88054  0.48431  Biso   1.000  C
  C98      1.0000 0.58018  0.88654  0.52629  Biso   1.000  C
  C99      1.0000 0.51837  0.78989  0.43591  Biso   1.000  C
  H83      1.0000 0.54548  0.71573  0.43988  Biso   1.000  H
  C100     1.0000 0.50548  0.53741  0.33191  Biso   1.000  C
  C101     1.0000 0.53899  0.60359  0.29100  Biso   1.000  C
  C102     1.0000 0.51689  0.50803  0.41791  Biso   1.000  C
  H84      1.0000 0.55038  0.55650  0.45232  Biso   1.000  H
  N7       1.0000 0.26057  0.70812  0.50009  Biso   1.000  N
  H85      1.0000 0.22367  0.75451  0.50139  Biso   1.000  H
  H86      1.0000 0.24448  0.76509  0.55038  Biso   1.000  H
  H87      1.0000 0.23167  0.50203  0.57852  Biso   1.000  H
  H88      1.0000 0.23968  0.55479  0.53969  Biso   1.000  H
  N8       1.0000 0.27198  0.53240  0.59040  Biso   1.000  N
  C103     1.0000 0.52748  0.94464  0.50421  Biso   1.000  C
  C104     1.0000 0.51299  0.84903  0.45221  Biso   1.000  C
  C105     1.0000 0.57647  0.94851  0.53669  Biso   1.000  C
  H89      1.0000 0.59707  0.86542  0.53780  Biso   1.000  H
  H90      1.0000 0.50468  0.76991  0.41360  Biso   1.000  H
  C106     1.0000 0.48799  0.53222  0.28458  Biso   1.000  C
  C107     1.0000 0.50069  0.50132  0.37381  Biso   1.000  C
  C108     1.0000 0.52518  0.59051  0.24691  Biso   1.000  C
  H91      1.0000 0.55458  0.63160  0.29308  Biso   1.000  H
  H92      1.0000 0.51278  0.48389  0.44601  Biso   1.000  H
  C109     1.0000 0.28638  0.72504  0.51449  Biso   1.000  C
  C110     1.0000 0.29048  0.54199  0.55892  Biso   1.000  C
  C111     1.0000 0.49999  0.97501  0.50002  Biso   1.000  C
  C112     1.0000 0.55169  0.97832  0.52470  Biso   1.000  C
  H93      1.0000 0.49569  0.86892  0.44122  Biso   1.000  H
  H94      1.0000 0.59178  0.97161  0.55291  Biso   1.000  H
  C113     1.0000 0.46080  0.50071  0.27961  Biso   1.000  C
  C114     1.0000 0.49959  0.55413  0.24149  Biso   1.000  C
  H95      1.0000 0.48578  0.47133  0.37159  Biso   1.000  H
  H96      1.0000 0.53269  0.60590  0.21781  Biso   1.000  H
  C115     1.0000 0.30989  0.70472  0.48899  Biso   1.000  C
  H97      1.0000 0.28957  0.75154  0.54270  Biso   1.000  H
  H98      1.0000 0.28457  0.55583  0.52622  Biso   1.000  H
  C116     1.0000 0.31998  0.53203  0.57240  Biso   1.000  C
  C117     1.0000 0.47248  0.94464  0.49582  Biso   1.000  C
  C118     1.0000 0.49999  0.04412  0.50002  Biso   1.000  C
  C119     1.0000 0.54858  0.04568  0.53030  Biso   1.000  C
  C120     1.0000 0.44149  0.49523  0.31728  Biso   1.000  C
  C121     1.0000 0.45218  0.47539  0.23310  Biso   1.000  C
  C122     1.0000 0.48749  0.54029  0.19598  Biso   1.000  C
  C123     1.0000 0.30629  0.66599  0.44720  Biso   1.000  C
  C124     1.0000 0.33669  0.72844  0.50491  Biso   1.000  C
  C125     1.0000 0.33027  0.51389  0.61972  Biso   1.000  C
  C126     1.0000 0.33928  0.54143  0.53550  Biso   1.000  C
  C127     1.0000 0.46788  0.88054  0.51572  Biso   1.000  C
  C128     1.0000 0.44829  0.97832  0.47529  Biso   1.000  C
  C129     1.0000 0.47578  0.07652  0.48569  Biso   1.000  C
  C130     1.0000 0.52419  0.07652  0.51431  Biso   1.000  C
  H99      1.0000 0.56388  0.06939  0.54541  Biso   1.000  H
  C131     1.0000 0.43960  0.53689  0.35882  Biso   1.000  C
  C132     1.0000 0.42039  0.44743  0.31209  Biso   1.000  C
  C133     1.0000 0.43069  0.43340  0.22531  Biso   1.000  C
  C134     1.0000 0.46559  0.49821  0.18971  Biso   1.000  C
  H100     1.0000 0.49429  0.56013  0.16770  Biso   1.000  H
  C135     1.0000 0.32948  0.64960  0.42121  Biso   1.000  C
  O5       1.0000 0.28041  0.64369  0.43202  Biso   1.000  O
  C136     1.0000 0.35998  0.71190  0.47960  Biso   1.000  C
  H101     1.0000 0.33897  0.75560  0.53290  Biso   1.000  H
  O6       1.0000 0.31231  0.50501  0.65502  Biso   1.000  O
  C137     1.0000 0.36028  0.50279  0.63212  Biso   1.000  C
  C138     1.0000 0.36717  0.53070  0.54649  Biso   1.000  C
  H102     1.0000 0.33258  0.55513  0.50321  Biso   1.000  H
  C139     1.0000 0.44188  0.85333  0.50250  Biso   1.000  C
  C140     1.0000 0.48698  0.84903  0.54779  Biso   1.000  C
  C141     1.0000 0.42348  0.94851  0.46331  Biso   1.000  C
  C142     1.0000 0.45137  0.04568  0.46969  Biso   1.000  C
  H103     1.0000 0.47599  0.12140  0.48691  Biso   1.000  H
  H104     1.0000 0.52398  0.12140  0.51312  Biso   1.000  H
  C143     1.0000 0.42238  0.52272  0.39772  Biso   1.000  C
  C144     1.0000 0.45298  0.59830  0.36179  Biso   1.000  C
  C145     1.0000 0.40329  0.43420  0.35039  Biso   1.000  C
  C146     1.0000 0.41569  0.41493  0.26491  Biso   1.000  C
  H105     1.0000 0.42599  0.41672  0.19301  Biso   1.000  H
  H106     1.0000 0.45909  0.48399  0.15742  Biso   1.000  H
  C147     1.0000 0.32617  0.60619  0.37548  Biso   1.000  C
  C148     1.0000 0.35559  0.67312  0.43881  Biso   1.000  C
  C149     1.0000 0.38718  0.73821  0.49471  Biso   1.000  C
  C150     1.0000 0.37697  0.51082  0.59459  Biso   1.000  C
  C151     1.0000 0.37128  0.48611  0.68460  Biso   1.000  C
  C152     1.0000 0.38688  0.53921  0.50889  Biso   1.000  C
  C153     1.0000 0.43649  0.78961  0.51902  Biso   1.000  C
  C154     1.0000 0.41979  0.88654  0.47370  Biso   1.000  C
  C155     1.0000 0.48158  0.78989  0.56412  Biso   1.000  C
  H107     1.0000 0.50429  0.86892  0.55881  Biso   1.000  H
  H108     1.0000 0.40819  0.97161  0.44709  Biso   1.000  H
  H109     1.0000 0.43607  0.06939  0.45462  Biso   1.000  H
  C156     1.0000 0.42088  0.56401  0.43951  Biso   1.000  C
  C157     1.0000 0.40549  0.46490  0.39312  Biso   1.000  C
  C158     1.0000 0.45079  0.63793  0.40098  Biso   1.000  C
  H110     1.0000 0.46359  0.61143  0.33551  Biso   1.000  H
  H111     1.0000 0.38948  0.40170  0.34560  Biso   1.000  H
  H112     1.0000 0.40249  0.38129  0.26101  Biso   1.000  H
  C159     1.0000 0.31598  0.54053  0.38952  Biso   1.000  C
  C160     1.0000 0.30568  0.63949  0.33499  Biso   1.000  C
  C161     1.0000 0.35429  0.59660  0.35359  Biso   1.000  C
  H113     1.0000 0.37148  0.66169  0.42159  Biso   1.000  H
  C162     1.0000 0.40969  0.75909  0.50610  Biso   1.000  C
  H114     1.0000 0.39647  0.50250  0.60109  Biso   1.000  H
  C163     1.0000 0.40287  0.47492  0.68709  Biso   1.000  C
  C164     1.0000 0.36616  0.54133  0.71972  Biso   1.000  C
  C165     1.0000 0.35857  0.42612  0.70301  Biso   1.000  C
  C166     1.0000 0.40278  0.54922  0.47741  Biso   1.000  C
  C167     1.0000 0.45729  0.75791  0.54972  Biso   1.000  C
  H115     1.0000 0.40288  0.86542  0.46219  Biso   1.000  H
  H116     1.0000 0.49527  0.76991  0.58639  Biso   1.000  H
  C168     1.0000 0.43548  0.61993  0.44111  Biso   1.000  C
  H117     1.0000 0.39618  0.44969  0.42051  Biso   1.000  H
  H118     1.0000 0.45977  0.67803  0.40139  Biso   1.000  H
  H119     1.0000 0.29789  0.54431  0.40392  Biso   1.000  H
  H120     1.0000 0.31378  0.51389  0.35978  Biso   1.000  H
  H121     1.0000 0.32988  0.52140  0.41390  Biso   1.000  H
  H122     1.0000 0.28738  0.64629  0.34809  Biso   1.000  H
  H123     1.0000 0.31369  0.68030  0.32619  Biso   1.000  H
  H124     1.0000 0.30330  0.61271  0.30541  Biso   1.000  H
  H125     1.0000 0.36170  0.63751  0.34401  Biso   1.000  H
  H126     1.0000 0.36769  0.57671  0.37842  Biso   1.000  H
  H127     1.0000 0.35159  0.56920  0.32430  Biso   1.000  H
  H128     1.0000 0.41217  0.51271  0.67551  Biso   1.000  H
  H129     1.0000 0.40997  0.46580  0.72139  Biso   1.000  H
  H130     1.0000 0.40677  0.43892  0.66590  Biso   1.000  H
  H131     1.0000 0.37448  0.57992  0.70732  Biso   1.000  H
  H132     1.0000 0.34578  0.54743  0.72102  Biso   1.000  H
  H133     1.0000 0.37477  0.53170  0.75301  Biso   1.000  H
  H134     1.0000 0.36648  0.41762  0.73701  Biso   1.000  H
  H135     1.0000 0.33808  0.43089  0.70242  Biso   1.000  H
  H136     1.0000 0.36298  0.39093  0.68141  Biso   1.000  H
  H137     1.0000 0.45448  0.71573  0.56011  Biso   1.000  H
  H138     1.0000 0.43528  0.64662  0.46932  Biso   1.000  H
  C169     1.0000 0.66968  0.36731  0.44731  Biso   1.000  C
  C170     1.0000 0.66199  0.33420  0.40689  Biso   1.000  C
  C171     1.0000 0.69808  0.37610  0.46331  Biso   1.000  C
  H139     1.0000 0.65567  0.38550  0.46579  Biso   1.000  H
  C172     1.0000 0.68209  0.29891  0.38161  Biso   1.000  C
  H140     1.0000 0.64279  0.33373  0.39441  Biso   1.000  H
  C173     1.0000 0.71978  0.35210  0.43480  Biso   1.000  C
  C174     1.0000 0.70638  0.40912  0.50822  Biso   1.000  C
  C175     1.0000 0.67368  0.25820  0.34071  Biso   1.000  C
  C176     1.0000 0.71127  0.30463  0.39738  Biso   1.000  C
  C177     1.0000 0.74848  0.37052  0.44731  Biso   1.000  C
  C178     1.0000 0.73408  0.41290  0.52570  Biso   1.000  C
  H141     1.0000 0.69247  0.42881  0.52611  Biso   1.000  H
  C179     1.0000 0.64469  0.25593  0.32159  Biso   1.000  C
  C180     1.0000 0.69369  0.21970  0.32081  Biso   1.000  C
  C181     1.0000 0.72969  0.26193  0.37801  Biso   1.000  C
  C182     1.0000 0.75547  0.39372  0.49590  Biso   1.000  C
  C183     1.0000 0.77108  0.36599  0.41438  Biso   1.000  C
  H142     1.0000 0.73889  0.42853  0.55822  Biso   1.000  H
  C184     1.0000 0.62038  0.25560  0.30941  Biso   1.000  C
  H143     1.0000 0.68838  0.19273  0.29360  Biso   1.000  H
  C185     1.0000 0.72108  0.22121  0.34071  Biso   1.000  C
  H144     1.0000 0.74878  0.26098  0.39130  Biso   1.000  H
  C186     1.0000 0.78408  0.39669  0.51501  Biso   1.000  C
  C187     1.0000 0.79849  0.36273  0.43628  Biso   1.000  C
  C188     1.0000 0.76700  0.36769  0.36041  Biso   1.000  C
  C189     1.0000 0.59048  0.25730  0.29709  Biso   1.000  C
  H145     1.0000 0.73439  0.19329  0.32820  Biso   1.000  H
  H146     1.0000 0.78888  0.41162  0.54779  Biso   1.000  H
  C190     1.0000 0.80478  0.37789  0.48610  Biso   1.000  C
  C191     1.0000 0.82079  0.34662  0.40499  Biso   1.000  C
  C192     1.0000 0.78949  0.35040  0.33202  Biso   1.000  C
  C193     1.0000 0.74169  0.39079  0.33469  Biso   1.000  C
  C194     1.0000 0.57299  0.21932  0.32419  Biso   1.000  C
  C195     1.0000 0.57820  0.29509  0.25890  Biso   1.000  C
  H147     1.0000 0.82379  0.37520  0.50009  Biso   1.000  H
  H148     1.0000 0.83948  0.34261  0.41991  Biso   1.000  H
  C196     1.0000 0.81600  0.33732  0.35670  Biso   1.000  C
  C197     1.0000 0.78469  0.34880  0.27939  Biso   1.000  C
  H149     1.0000 0.72709  0.40633  0.35340  Biso   1.000  H
  C198     1.0000 0.73778  0.39150  0.28481  Biso   1.000  C
  C199     1.0000 0.54399  0.22121  0.31391  Biso   1.000  C
  H150     1.0000 0.58109  0.19230  0.34961  Biso   1.000  H
  C200     1.0000 0.54920  0.29939  0.24739  Biso   1.000  C
  H151     1.0000 0.59020  0.31908  0.23971  Biso   1.000  H
  H152     1.0000 0.83068  0.32159  0.33840  Biso   1.000  H
  C201     1.0000 0.75940  0.36882  0.25689  Biso   1.000  C
  C202     1.0000 0.80719  0.32952  0.25092  Biso   1.000  C
  H153     1.0000 0.72069  0.40699  0.26859  Biso   1.000  H
  C203     1.0000 0.52669  0.18441  0.34460  Biso   1.000  C
  C204     1.0000 0.53219  0.26141  0.27660  Biso   1.000  C
  C205     1.0000 0.53719  0.34369  0.20749  Biso   1.000  C
  H154     1.0000 0.75628  0.36750  0.22171  Biso   1.000  H
  C206     1.0000 0.82840  0.31271  0.23329  Biso   1.000  C
  N9       1.0000 0.49989  0.18432  0.33959  Biso   1.000  N
  H155     1.0000 0.53578  0.15872  0.36981  Biso   1.000  H
  O7       1.0000 0.50396  0.26311  0.26669  Biso   1.000  O
  C207     1.0000 0.51759  0.30879  0.17082  Biso   1.000  C
  C208     1.0000 0.56039  0.37870  0.18258  Biso   1.000  C
  C209     1.0000 0.51738  0.38932  0.22501  Biso   1.000  C
  C210     1.0000 0.85429  0.29282  0.21569  Biso   1.000  C
  C211     1.0000 0.48408  0.14591  0.37318  Biso   1.000  C
  H156     1.0000 0.52810  0.27548  0.15512  Biso   1.000  H
  H157     1.0000 0.50238  0.28980  0.18789  Biso   1.000  H
  H158     1.0000 0.50970  0.33821  0.14539  Biso   1.000  H
  H159     1.0000 0.57360  0.34799  0.17048  Biso   1.000  H
  H160     1.0000 0.55198  0.40359  0.15460  Biso   1.000  H
  H161     1.0000 0.57048  0.40699  0.20671  Biso   1.000  H
  H162     1.0000 0.52740  0.41649  0.25058  Biso   1.000  H
  H163     1.0000 0.50949  0.41521  0.19769  Biso   1.000  H
  H164     1.0000 0.50219  0.36679  0.24019  Biso   1.000  H
  C212     1.0000 0.85909  0.22692  0.20909  Biso   1.000  C
  C213     1.0000 0.87558  0.33439  0.20678  Biso   1.000  C
  C214     1.0000 0.46438  0.10269  0.34319  Biso   1.000  C
  H165     1.0000 0.47318  0.17378  0.39390  Biso   1.000  H
  H166     1.0000 0.49729  0.12069  0.39542  Biso   1.000  H
  H167     1.0000 0.84420  0.19821  0.21410  Biso   1.000  H
  C215     1.0000 0.88419  0.20302  0.19598  Biso   1.000  C
  C216     1.0000 0.90089  0.31308  0.19372  Biso   1.000  C
  H168     1.0000 0.87250  0.37851  0.20979  Biso   1.000  H
  H169     1.0000 0.45029  0.08611  0.36468  Biso   1.000  H
  H170     1.0000 0.45419  0.12721  0.31610  Biso   1.000  H
  N10      1.0000 0.47868  0.04960  0.32170  Biso   1.000  N
  C217     1.0000 0.90569  0.24681  0.18782  Biso   1.000  C
  C218     1.0000 0.88939  0.13160  0.19338  Biso   1.000  C
  C219     1.0000 0.92359  0.35900  0.18819  Biso   1.000  C
  C220     1.0000 0.46400  0.02730  0.27679  Biso   1.000  C
  C221     1.0000 0.48489  0.99972  0.35800  Biso   1.000  C
  O8       1.0000 0.93090  0.22579  0.17449  Biso   1.000  O
  C222     1.0000 0.91189  0.11190  0.23310  Biso   1.000  C
  C223     1.0000 0.89769  0.11351  0.14149  Biso   1.000  C
  C224     1.0000 0.86279  0.09428  0.20222  Biso   1.000  C
  H171     1.0000 0.91969  0.40241  0.19301  Biso   1.000  H
  N11      1.0000 0.94837  0.34360  0.17731  Biso   1.000  N
  H172     1.0000 0.44359  0.02579  0.28102  Biso   1.000  H
  C225     1.0000 0.46909  0.06991  0.23210  Biso   1.000  C
  H173     1.0000 0.47029  0.98380  0.27011  Biso   1.000  H
  H174     1.0000 0.48799  0.01852  0.39159  Biso   1.000  H
  H175     1.0000 0.46858  0.97062  0.35782  Biso   1.000  H
  C226     1.0000 0.51068  0.96301  0.34690  Biso   1.000  C
  H176     1.0000 0.92929  0.13491  0.22868  Biso   1.000  H
  H177     1.0000 0.90559  0.12168  0.26591  Biso   1.000  H
  H178     1.0000 0.91530  0.06641  0.23069  Biso   1.000  H
  H179     1.0000 0.88279  0.12669  0.11640  Biso   1.000  H
  H180     1.0000 0.91540  0.13448  0.13529  Biso   1.000  H
  H181     1.0000 0.90021  0.06760  0.13971  Biso   1.000  H
  H182     1.0000 0.84769  0.10590  0.17702  Biso   1.000  H
  H183     1.0000 0.86669  0.04898  0.19999  Biso   1.000  H
  H184     1.0000 0.85700  0.10420  0.23522  Biso   1.000  H
  C227     1.0000 0.97040  0.38762  0.17490  Biso   1.000  C
  H185     1.0000 0.45429  0.06221  0.20471  Biso   1.000  H
  H186     1.0000 0.46828  0.11488  0.24179  Biso   1.000  H
  N12      1.0000 0.49693  0.05508  0.21562  Biso   1.000  N
  N13      1.0000 0.53548  0.00109  0.36101  Biso   1.000  N
  H187     1.0000 0.51159  0.92291  0.36580  Biso   1.000  H
  H188     1.0000 0.50978  0.95291  0.31109  Biso   1.000  H
  H189     1.0000 0.98650  0.37449  0.19821  Biso   1.000  H
  H190     1.0000 0.96398  0.42943  0.18581  Biso   1.000  H
  C228     1.0000 0.98009  0.39353  0.12409  Biso   1.000  C
  C229     1.0000 0.51470  0.09920  0.21421  Biso   1.000  C
  C230     1.0000 0.55256  0.01630  0.32842  Biso   1.000  C
  H191     1.0000 0.98359  0.35092  0.11091  Biso   1.000  H
  H192     1.0000 0.99809  0.41719  0.12602  Biso   1.000  H
  N14      1.0000 0.95885  0.42683  0.08949  Biso   1.000  N
  H193     1.0000 0.50998  0.14020  0.22519  Biso   1.000  H
  C231     1.0000 0.54200  0.08880  0.19632  Biso   1.000  C
  H194     1.0000 0.54800  0.00411  0.29490  Biso   1.000  H
  C232     1.0000 0.57832  0.05102  0.34071  Biso   1.000  C
  C233     1.0000 0.96070  0.40940  0.03879  Biso   1.000  C
  C234     1.0000 0.96089  0.49433  0.09510  Biso   1.000  C
  C235     1.0000 0.55079  0.02801  0.18199  Biso   1.000  C
  C236     1.0000 0.56010  0.14048  0.19290  Biso   1.000  C
  C237     1.0000 0.58649  0.07128  0.38881  Biso   1.000  C
  C238     1.0000 0.59587  0.06169  0.30259  Biso   1.000  C
  C239     1.0000 0.94690  0.34823  0.02691  Biso   1.000  C
  H195     1.0000 0.98080  0.40661  0.03222  Biso   1.000  H
  H196     1.0000 0.95179  0.44251  0.01700  Biso   1.000  H
  C240     1.0000 0.93299  0.52990  0.08459  Biso   1.000  C
  H197     1.0000 0.97450  0.51039  0.07242  Biso   1.000  H
  H198     1.0000 0.96860  0.50392  0.12939  Biso   1.000  H
  C241     1.0000 0.57819  0.02041  0.16440  Biso   1.000  C
  O9       1.0000 0.53365  0.97931  0.18522  Biso   1.000  O
  C242     1.0000 0.58650  0.13349  0.17509  Biso   1.000  C
  H199     1.0000 0.55429  0.18111  0.20300  Biso   1.000  H
  O10      1.0000 0.56972  0.05862  0.42552  Biso   1.000  O
  C243     1.0000 0.61239  0.10198  0.40080  Biso   1.000  C
  C244     1.0000 0.62189  0.09022  0.31450  Biso   1.000  C
  H200     1.0000 0.59019  0.04960  0.26940  Biso   1.000  H
  N15      1.0000 0.91630  0.35461  0.02390  Biso   1.000  N
  H201     1.0000 0.95300  0.31691  0.05282  Biso   1.000  H
  H202     1.0000 0.95256  0.33259  0.99480  Biso   1.000  H
  N16      1.0000 0.91410  0.52083  0.12271  Biso   1.000  N
  H203     1.0000 0.93700  0.57563  0.08159  Biso   1.000  H
  H204     1.0000 0.92370  0.51540  0.05248  Biso   1.000  H
  C245     1.0000 0.59449  0.07241  0.16120  Biso   1.000  C
  C246     1.0000 0.58750  0.95262  0.14892  Biso   1.000  C
  C247     1.0000 0.60330  0.18720  0.16740  Biso   1.000  C
  C248     1.0000 0.62959  0.10888  0.36131  Biso   1.000  C
  C249     1.0000 0.62148  0.12659  0.45291  Biso   1.000  C
  C250     1.0000 0.64110  0.09329  0.27519  Biso   1.000  C
  C251     1.0000 0.90180  0.32230  0.05182  Biso   1.000  C
  C252     1.0000 0.88930  0.49863  0.11091  Biso   1.000  C
  H205     1.0000 0.61239  0.06741  0.14881  Biso   1.000  H
  C253     1.0000 0.58760  0.91030  0.19001  Biso   1.000  C
  C254     1.0000 0.61820  0.95560  0.13440  Biso   1.000  C
  C255     1.0000 0.56869  0.93113  0.10259  Biso   1.000  C
  C256     1.0000 0.61658  0.23462  0.16050  Biso   1.000  C
  H206     1.0000 0.64759  0.12768  0.36799  Biso   1.000  H
  C257     1.0000 0.62588  0.06949  0.48810  Biso   1.000  C
  C258     1.0000 0.59887  0.17000  0.47062  Biso   1.000  C
  C259     1.0000 0.64899  0.16131  0.45481  Biso   1.000  C
  C260     1.0000 0.65659  0.09022  0.24309  Biso   1.000  C
  C261     1.0000 0.87190  0.32820  0.04911  Biso   1.000  C
  H207     1.0000 0.91100  0.29372  0.07490  Biso   1.000  H
  C262     1.0000 0.86860  0.49150  0.14799  Biso   1.000  C
  H208     1.0000 0.88420  0.48663  0.07750  Biso   1.000  H
  H209     1.0000 0.59999  0.92702  0.21781  Biso   1.000  H
  H210     1.0000 0.56848  0.90590  0.20010  Biso   1.000  H
  H211     1.0000 0.59459  0.86892  0.18039  Biso   1.000  H
  H212     1.0000 0.61920  0.98432  0.10619  Biso   1.000  H
  H213     1.0000 0.63050  0.97123  0.16269  Biso   1.000  H
  H214     1.0000 0.62430  0.91332  0.12531  Biso   1.000  H
  H215     1.0000 0.56969  0.96231  0.07602  Biso   1.000  H
  H216     1.0000 0.57530  0.89013  0.09131  Biso   1.000  H
  H217     1.0000 0.54920  0.92721  0.11098  Biso   1.000  H
  C263     1.0000 0.63110  0.29112  0.15252  Biso   1.000  C
  H218     1.0000 0.60828  0.04549  0.48799  Biso   1.000  H
  H219     1.0000 0.64068  0.04242  0.47689  Biso   1.000  H
  H220     1.0000 0.63137  0.08451  0.52180  Biso   1.000  H
  H221     1.0000 0.58089  0.14728  0.46939  Biso   1.000  H
  H222     1.0000 0.60437  0.18333  0.50480  Biso   1.000  H
  H223     1.0000 0.59689  0.20723  0.44909  Biso   1.000  H
  H224     1.0000 0.66359  0.13340  0.44341  Biso   1.000  H
  H225     1.0000 0.64698  0.19849  0.43320  Biso   1.000  H
  H226     1.0000 0.65449  0.17468  0.48899  Biso   1.000  H
  C264     1.0000 0.67599  0.07841  0.20641  Biso   1.000  C
  C265     1.0000 0.85639  0.28710  0.07891  Biso   1.000  C
  C266     1.0000 0.85650  0.37260  0.01711  Biso   1.000  C
  C267     1.0000 0.84260  0.46599  0.13051  Biso   1.000  C
  C268     1.0000 0.87459  0.50860  0.19680  Biso   1.000  C
  C269     1.0000 0.65100  0.31351  0.18719  Biso   1.000  C
  C270     1.0000 0.62410  0.32711  0.10861  Biso   1.000  C
  C271     1.0000 0.68110  0.12130  0.17111  Biso   1.000  C
  C272     1.0000 0.69051  0.01819  0.20808  Biso   1.000  C
  C273     1.0000 0.82769  0.29150  0.07531  Biso   1.000  C
  H227     1.0000 0.86600  0.25739  0.10059  Biso   1.000  H
  C274     1.0000 0.82720  0.37671  0.01540  Biso   1.000  C
  O11      1.0000 0.87168  0.41120  0.98942  Biso   1.000  O
  C275     1.0000 0.82159  0.46070  0.16339  Biso   1.000  C
  H228     1.0000 0.83919  0.45253  0.09699  Biso   1.000  H
  C276     1.0000 0.85309  0.50293  0.23169  Biso   1.000  C
  O12      1.0000 0.90015  0.52962  0.21209  Biso   1.000  O
  H229     1.0000 0.65609  0.28890  0.21599  Biso   1.000  H
  C277     1.0000 0.66429  0.37232  0.18151  Biso   1.000  C
  C278     1.0000 0.63840  0.38512  0.10089  Biso   1.000  C
  C279     1.0000 0.60079  0.31153  0.07502  Biso   1.000  C
  H230     1.0000 0.67229  0.16160  0.17130  Biso   1.000  H
  C280     1.0000 0.69910  0.10661  0.13422  Biso   1.000  C
  C281     1.0000 0.71159  0.00671  0.17479  Biso   1.000  C
  C282     1.0000 0.68309  0.96953  0.24078  Biso   1.000  C
  C283     1.0000 0.81239  0.24761  0.10389  Biso   1.000  C
  C284     1.0000 0.81360  0.33510  0.04410  Biso   1.000  C
  C285     1.0000 0.81098  0.42343  0.97869  Biso   1.000  C
  C286     1.0000 0.79419  0.43883  0.14498  Biso   1.000  C
  C287     1.0000 0.82759  0.47959  0.21309  Biso   1.000  C
  C288     1.0000 0.85880  0.51800  0.28622  Biso   1.000  C
  H231     1.0000 0.67779  0.38772  0.20630  Biso   1.000  H
  C289     1.0000 0.65729  0.40661  0.13979  Biso   1.000  C
  C290     1.0000 0.63170  0.41960  0.05571  Biso   1.000  C
  H232     1.0000 0.59030  0.27430  0.08081  Biso   1.000  H
  C291     1.0000 0.59299  0.34662  0.03619  Biso   1.000  C
  H233     1.0000 0.70080  0.13481  0.10720  Biso   1.000  H
  C292     1.0000 0.71451  0.05068  0.13730  Biso   1.000  C
  C293     1.0000 0.72768  0.94804  0.17950  Biso   1.000  C
  H234     1.0000 0.67029  0.97841  0.26510  Biso   1.000  H
  C294     1.0000 0.69379  0.91120  0.23770  Biso   1.000  C
  C295     1.0000 0.80079  0.20732  0.12709  Biso   1.000  C
  H235     1.0000 0.79360  0.33632  0.04239  Biso   1.000  H
  C296     1.0000 0.81606  0.39863  0.92472  Biso   1.000  C
  C297     1.0000 0.82017  0.49121  0.98990  Biso   1.000  C
  C298     1.0000 0.77937  0.42121  0.98393  Biso   1.000  C
  C299     1.0000 0.77149  0.42130  0.12709  Biso   1.000  C
  H236     1.0000 0.81310  0.47600  0.23499  Biso   1.000  H
  C300     1.0000 0.87079  0.58791  0.29279  Biso   1.000  C
  C301     1.0000 0.83308  0.51280  0.31550  Biso   1.000  C
  C302     1.0000 0.88119  0.47081  0.30949  Biso   1.000  C
  H237     1.0000 0.66569  0.44700  0.13682  Biso   1.000  H
  C303     1.0000 0.60689  0.40420  0.02598  Biso   1.000  C
  C304     1.0000 0.64811  0.47440  0.04001  Biso   1.000  C
  H238     1.0000 0.57760  0.33321  0.01410  Biso   1.000  H
  H239     1.0000 0.72740  0.04232  0.11310  Biso   1.000  H
  C305     1.0000 0.71609  0.89934  0.20712  Biso   1.000  C
  C306     1.0000 0.75299  0.93703  0.15500  Biso   1.000  C
  H240     1.0000 0.68639  0.87761  0.25600  Biso   1.000  H
  C307     1.0000 0.78819  0.15838  0.15382  Biso   1.000  C
  H241     1.0000 0.83628  0.39962  0.92042  Biso   1.000  H
  H242     1.0000 0.80917  0.35522  0.92072  Biso   1.000  H
  H243     1.0000 0.80608  0.42579  0.89971  Biso   1.000  H
  H244     1.0000 0.81599  0.50231  0.02372  Biso   1.000  H
  H245     1.0000 0.84046  0.49499  0.98712  Biso   1.000  H
  H246     1.0000 0.80997  0.51979  0.96622  Biso   1.000  H
  H247     1.0000 0.77580  0.43321  0.01771  Biso   1.000  H
  H248     1.0000 0.77236  0.37832  0.97702  Biso   1.000  H
  H249     1.0000 0.76976  0.45068  0.96021  Biso   1.000  H
  C308     1.0000 0.74490  0.40411  0.10430  Biso   1.000  C
  H250     1.0000 0.87438  0.59740  0.32831  Biso   1.000  H
  H251     1.0000 0.88840  0.59150  0.27671  Biso   1.000  H
  H252     1.0000 0.85698  0.61800  0.27772  Biso   1.000  H
  H253     1.0000 0.83838  0.52319  0.35039  Biso   1.000  H
  H254     1.0000 0.81859  0.54223  0.30192  Biso   1.000  H
  H255     1.0000 0.82579  0.46953  0.31320  Biso   1.000  H
  H256     1.0000 0.88510  0.48021  0.34501  Biso   1.000  H
  H257     1.0000 0.87409  0.42759  0.30552  Biso   1.000  H
  H258     1.0000 0.89859  0.47511  0.29290  Biso   1.000  H
  C309     1.0000 0.59527  0.44502  0.98849  Biso   1.000  C
  C310     1.0000 0.63260  0.51842  0.00898  Biso   1.000  C
  C311     1.0000 0.67721  0.48479  0.05319  Biso   1.000  C
  C312     1.0000 0.72668  0.83590  0.20259  Biso   1.000  C
  C313     1.0000 0.75879  0.87189  0.14610  Biso   1.000  C
  C314     1.0000 0.77170  0.98493  0.14001  Biso   1.000  C
  C315     1.0000 0.78820  0.09598  0.13619  Biso   1.000  C
  C316     1.0000 0.77599  0.17232  0.19739  Biso   1.000  C
  C317     1.0000 0.72510  0.45220  0.08819  Biso   1.000  C
  C318     1.0000 0.73760  0.34119  0.09562  Biso   1.000  C
  C319     1.0000 0.60747  0.50742  0.98411  Biso   1.000  C
  H259     1.0000 0.57977  0.43203  0.96659  Biso   1.000  H
  C320     1.0000 0.64540  0.58210  0.00371  Biso   1.000  C
  C321     1.0000 0.68751  0.54780  0.05089  Biso   1.000  C
  C322     1.0000 0.69800  0.43651  0.06640  Biso   1.000  C
  C323     1.0000 0.74539  0.82291  0.16900  Biso   1.000  C
  H260     1.0000 0.72059  0.80331  0.22330  Biso   1.000  H
  C324     1.0000 0.77950  0.85772  0.11091  Biso   1.000  C
  C325     1.0000 0.77444  0.04691  0.16150  Biso   1.000  C
  C326     1.0000 0.78929  0.96774  0.10319  Biso   1.000  C
  C327     1.0000 0.80279  0.07799  0.09421  Biso   1.000  C
  C328     1.0000 0.76549  0.12409  0.22501  Biso   1.000  C
  H261     1.0000 0.77499  0.21479  0.20831  Biso   1.000  H
  C329     1.0000 0.73249  0.51880  0.09072  Biso   1.000  C
  C330     1.0000 0.71249  0.32461  0.07179  Biso   1.000  C
  H262     1.0000 0.75060  0.30912  0.10671  Biso   1.000  H
  H263     1.0000 0.59796  0.53921  0.96422  Biso   1.000  H
  C331     1.0000 0.67030  0.59372  0.02762  Biso   1.000  C
  H264     1.0000 0.63586  0.61370  0.98359  Biso   1.000  H
  C332     1.0000 0.71500  0.56202  0.07201  Biso   1.000  C
  C333     1.0000 0.69230  0.37109  0.05579  Biso   1.000  C
  H265     1.0000 0.74940  0.78030  0.16109  Biso   1.000  H
  H266     1.0000 0.78421  0.81502  0.10449  Biso   1.000  H
  C334     1.0000 0.79199  0.90453  0.08749  Biso   1.000  C
  C335     1.0000 0.76490  0.06358  0.20801  Biso   1.000  C
  C336     1.0000 0.80439  0.01701  0.07962  Biso   1.000  C
  H267     1.0000 0.81170  0.10968  0.07620  Biso   1.000  H
  H268     1.0000 0.75858  0.13330  0.25611  Biso   1.000  H
  H269     1.0000 0.75030  0.53113  0.10619  Biso   1.000  H
  H270     1.0000 0.70840  0.28120  0.06570  Biso   1.000  H
  H271     1.0000 0.67679  0.63623  0.02899  Biso   1.000  H
  H272     1.0000 0.72110  0.60472  0.07260  Biso   1.000  H
  H273     1.0000 0.67510  0.35900  0.03819  Biso   1.000  H
  H274     1.0000 0.80259  0.89513  0.06032  Biso   1.000  H
  H275     1.0000 0.75779  0.03141  0.22802  Biso   1.000  H
  H276     1.0000 0.81561  0.00638  0.05341  Biso   1.000  H
  C337     1.0000 0.58807  0.61190  0.76689  Biso   1.000  C
  C338     1.0000 0.61057  0.63160  0.80661  Biso   1.000  C
  H277     1.0000 0.57067  0.63491  0.77131  Biso   1.000  H
  H278     1.0000 0.59437  0.62173  0.73412  Biso   1.000  H
  H279     1.0000 0.58466  0.56641  0.76931  Biso   1.000  H
  C339     1.0000 0.61577  0.70302  0.80401  Biso   1.000  C
  C340     1.0000 0.60227  0.61351  0.85850  Biso   1.000  C
  C341     1.0000 0.63718  0.59433  0.79781  Biso   1.000  C
  C342     1.0000 0.64087  0.72692  0.79091  Biso   1.000  C
  C343     1.0000 0.59428  0.74681  0.81221  Biso   1.000  C
  H280     1.0000 0.61717  0.62669  0.88359  Biso   1.000  H
  H281     1.0000 0.58456  0.63453  0.86470  Biso   1.000  H
  H282     1.0000 0.59976  0.56760  0.86032  Biso   1.000  H
  H283     1.0000 0.65227  0.60590  0.82302  Biso   1.000  H
  H284     1.0000 0.63327  0.54903  0.80000  Biso   1.000  H
  H285     1.0000 0.64296  0.60420  0.76481  Biso   1.000  H
  C344     1.0000 0.64567  0.79282  0.78430  Biso   1.000  C
  H286     1.0000 0.65576  0.69821  0.78590  Biso   1.000  H
  O13      1.0000 0.56906  0.72579  0.82550  Biso   1.000  O
  C345     1.0000 0.59907  0.81313  0.80631  Biso   1.000  C
  C346     1.0000 0.67156  0.81271  0.76671  Biso   1.000  C
  C347     1.0000 0.62436  0.83444  0.79321  Biso   1.000  C
  C348     1.0000 0.57637  0.85900  0.81181  Biso   1.000  C
  C349     1.0000 0.69277  0.82952  0.74911  Biso   1.000  C
  H287     1.0000 0.62747  0.87851  0.79020  Biso   1.000  H
  H288     1.0000 0.58028  0.90241  0.80702  Biso   1.000  H
  N17      1.0000 0.55159  0.84360  0.82272  Biso   1.000  N
  C350     1.0000 0.71527  0.84880  0.72061  Biso   1.000  C
  C351     1.0000 0.52956  0.88762  0.82509  Biso   1.000  C
  C352     1.0000 0.71048  0.85040  0.66801  Biso   1.000  C
  C353     1.0000 0.74057  0.86882  0.74310  Biso   1.000  C
  H289     1.0000 0.51346  0.87454  0.80182  Biso   1.000  H
  H290     1.0000 0.53596  0.92943  0.81422  Biso   1.000  H
  C354     1.0000 0.51987  0.89353  0.87591  Biso   1.000  C
  C355     1.0000 0.68397  0.83732  0.64329  Biso   1.000  C
  C356     1.0000 0.73297  0.86774  0.63962  Biso   1.000  C
  C357     1.0000 0.76218  0.89150  0.71519  Biso   1.000  C
  H291     1.0000 0.74368  0.86750  0.77829  Biso   1.000  H
  H292     1.0000 0.51637  0.85092  0.88912  Biso   1.000  H
  H293     1.0000 0.50187  0.91719  0.87402  Biso   1.000  H
  N18      1.0000 0.54111  0.92683  0.91050  Biso   1.000  N
  C358     1.0000 0.67917  0.84662  0.59500  Biso   1.000  C
  H294     1.0000 0.66928  0.82163  0.66159  Biso   1.000  H
  C359     1.0000 0.72888  0.86604  0.58561  Biso   1.000  C
  C360     1.0000 0.75827  0.89084  0.66530  Biso   1.000  C
  H295     1.0000 0.77927  0.90704  0.73141  Biso   1.000  H
  C361     1.0000 0.53926  0.90940  0.96121  Biso   1.000  C
  C362     1.0000 0.53907  0.99433  0.90490  Biso   1.000  C
  C363     1.0000 0.70148  0.86273  0.56371  Biso   1.000  C
  H296     1.0000 0.66048  0.84261  0.58012  Biso   1.000  H
  C364     1.0000 0.75149  0.87052  0.55269  Biso   1.000  C
  H297     1.0000 0.77287  0.90633  0.64659  Biso   1.000  H
  C365     1.0000 0.55307  0.84823  0.97312  Biso   1.000  C
  H298     1.0000 0.51916  0.90661  0.96781  Biso   1.000  H
  H299     1.0000 0.54817  0.94251  0.98299  Biso   1.000  H
  C366     1.0000 0.56695  0.02990  0.91540  Biso   1.000  C
  H300     1.0000 0.52546  0.01039  0.92761  Biso   1.000  H
  H301     1.0000 0.53137  0.00392  0.87060  Biso   1.000  H
  C367     1.0000 0.69518  0.87789  0.51390  Biso   1.000  C
  C368     1.0000 0.78018  0.85210  0.56519  Biso   1.000  C
  C369     1.0000 0.74447  0.89372  0.50410  Biso   1.000  C
  H302     1.0000 0.54696  0.81691  0.94721  Biso   1.000  H
  N19      1.0000 0.58367  0.85461  0.97609  Biso   1.000  N
  H303     1.0000 0.54740  0.83259  0.00519  Biso   1.000  H
  H304     1.0000 0.56297  0.07558  0.91841  Biso   1.000  H
  H305     1.0000 0.57626  0.01540  0.94751  Biso   1.000  H
  N20      1.0000 0.58587  0.02078  0.87732  Biso   1.000  N
  C370     1.0000 0.71588  0.89669  0.48502  Biso   1.000  C
  H306     1.0000 0.67617  0.87520  0.49990  Biso   1.000  H
  C371     1.0000 0.78867  0.80463  0.60261  Biso   1.000  C
  C372     1.0000 0.80188  0.87610  0.53669  Biso   1.000  C
  C373     1.0000 0.76588  0.91290  0.47429  Biso   1.000  C
  C374     1.0000 0.59816  0.82230  0.94821  Biso   1.000  C
  C375     1.0000 0.61066  0.99863  0.88912  Biso   1.000  C
  H307     1.0000 0.71108  0.91162  0.45221  Biso   1.000  H
  C376     1.0000 0.77027  0.76193  0.62198  Biso   1.000  C
  C377     1.0000 0.81787  0.79891  0.61842  Biso   1.000  C
  C378     1.0000 0.83028  0.86731  0.55269  Biso   1.000  C
  C379     1.0000 0.79358  0.90912  0.49181  Biso   1.000  C
  H308     1.0000 0.76108  0.92853  0.44181  Biso   1.000  H
  C380     1.0000 0.62806  0.82820  0.95089  Biso   1.000  C
  H309     1.0000 0.58896  0.79372  0.92509  Biso   1.000  H
  C381     1.0000 0.63136  0.99150  0.85200  Biso   1.000  C
  H310     1.0000 0.61576  0.98663  0.92249  Biso   1.000  H
  C382     1.0000 0.77888  0.72121  0.65929  Biso   1.000  C
  H311     1.0000 0.75118  0.76103  0.60870  Biso   1.000  H
  C383     1.0000 0.82628  0.75820  0.65929  Biso   1.000  C
  C384     1.0000 0.83797  0.83420  0.59311  Biso   1.000  C
  H312     1.0000 0.84427  0.88550  0.53420  Biso   1.000  H
  H313     1.0000 0.80749  0.92881  0.47388  Biso   1.000  H
  C385     1.0000 0.64346  0.87260  0.98292  Biso   1.000  C
  C386     1.0000 0.64357  0.78710  0.92112  Biso   1.000  C
  C387     1.0000 0.65736  0.96604  0.86949  Biso   1.000  C
  C388     1.0000 0.62537  0.00860  0.80319  Biso   1.000  C
  C389     1.0000 0.80628  0.71970  0.67922  Biso   1.000  C
  H314     1.0000 0.76557  0.69329  0.67180  Biso   1.000  H
  C390     1.0000 0.85527  0.75593  0.67840  Biso   1.000  C
  H315     1.0000 0.85718  0.83373  0.60562  Biso   1.000  H
  C391     1.0000 0.67276  0.87671  0.98459  Biso   1.000  C
  O14      1.0000 0.62829  0.91120  0.01061  Biso   1.000  O
  C392     1.0000 0.67227  0.79150  0.92472  Biso   1.000  C
  H316     1.0000 0.63396  0.75739  0.89940  Biso   1.000  H
  C393     1.0000 0.67837  0.96070  0.83660  Biso   1.000  C
  H317     1.0000 0.66077  0.95253  0.90300  Biso   1.000  H
  O15      1.0000 0.59982  0.02962  0.78790  Biso   1.000  O
  C394     1.0000 0.64687  0.00288  0.76830  Biso   1.000  C
  H318     1.0000 0.81158  0.69273  0.70639  Biso   1.000  H
  C395     1.0000 0.87958  0.75560  0.69062  Biso   1.000  C
  C396     1.0000 0.68636  0.83510  0.95590  Biso   1.000  C
  C397     1.0000 0.68898  0.92343  0.02130  Biso   1.000  C
  C398     1.0000 0.68757  0.74761  0.89610  Biso   1.000  C
  C399     1.0000 0.70577  0.93883  0.85501  Biso   1.000  C
  C400     1.0000 0.67237  0.97964  0.78690  Biso   1.000  C
  C401     1.0000 0.64116  0.01800  0.71381  Biso   1.000  C
  C402     1.0000 0.90948  0.75730  0.70290  Biso   1.000  C
  H319     1.0000 0.70636  0.83632  0.95760  Biso   1.000  H
  C403     1.0000 0.68390  0.89863  0.07531  Biso   1.000  C
  C404     1.0000 0.67979  0.99121  0.01009  Biso   1.000  C
  C405     1.0000 0.72059  0.92121  0.01610  Biso   1.000  C
  C406     1.0000 0.69917  0.70732  0.87290  Biso   1.000  C
  C407     1.0000 0.72847  0.92130  0.87290  Biso   1.000  C
  H320     1.0000 0.68686  0.97600  0.76500  Biso   1.000  H
  C408     1.0000 0.61877  0.97081  0.69050  Biso   1.000  C
  C409     1.0000 0.62917  0.08791  0.70721  Biso   1.000  C
  C410     1.0000 0.66688  0.01280  0.68449  Biso   1.000  C
  C411     1.0000 0.92176  0.79513  0.74110  Biso   1.000  C
  C412     1.0000 0.92697  0.71932  0.67581  Biso   1.000  C
  H321     1.0000 0.66368  0.89962  0.07961  Biso   1.000  H
  H322     1.0000 0.69079  0.85522  0.07928  Biso   1.000  H
  H323     1.0000 0.69388  0.92584  0.10029  Biso   1.000  H
  H324     1.0000 0.65948  0.99504  0.01291  Biso   1.000  H
  H325     1.0000 0.68397  0.00231  0.97631  Biso   1.000  H
  H326     1.0000 0.68999  0.01979  0.03381  Biso   1.000  H
  H327     1.0000 0.72416  0.93321  0.98229  Biso   1.000  H
  H328     1.0000 0.72758  0.87832  0.02301  Biso   1.000  H
  H329     1.0000 0.73018  0.95073  0.03978  Biso   1.000  H
  C413     1.0000 0.71177  0.65843  0.84621  Biso   1.000  C
  C414     1.0000 0.75506  0.90411  0.89569  Biso   1.000  C
  H330     1.0000 0.61487  0.98021  0.65502  Biso   1.000  H
  H331     1.0000 0.62587  0.92763  0.69451  Biso   1.000  H
  H332     1.0000 0.60138  0.97511  0.70710  Biso   1.000  H
  H333     1.0000 0.62558  0.09740  0.67169  Biso   1.000  H
  H334     1.0000 0.61157  0.09150  0.72332  Biso   1.000  H
  H335     1.0000 0.64298  0.11800  0.72231  Biso   1.000  H
  H336     1.0000 0.67417  0.96953  0.68679  Biso   1.000  H
  H337     1.0000 0.66158  0.02319  0.64960  Biso   1.000  H
  H338     1.0000 0.68138  0.04218  0.69811  Biso   1.000  H
  C415     1.0000 0.95076  0.79943  0.75260  Biso   1.000  C
  H339     1.0000 0.90976  0.81913  0.76029  Biso   1.000  H
  C416     1.0000 0.95598  0.72121  0.68609  Biso   1.000  C
  H340     1.0000 0.91888  0.69230  0.65042  Biso   1.000  H
  C417     1.0000 0.71176  0.59603  0.86381  Biso   1.000  C
  C418     1.0000 0.72397  0.67232  0.80260  Biso   1.000  C
  C419     1.0000 0.77486  0.95220  0.91180  Biso   1.000  C
  C420     1.0000 0.76237  0.84124  0.90441  Biso   1.000  C
  C421     1.0000 0.96778  0.76141  0.72339  Biso   1.000  C
  C422     1.0000 0.96277  0.84369  0.79250  Biso   1.000  C
  C423     1.0000 0.97327  0.68441  0.65539  Biso   1.000  C
  C424     1.0000 0.69715  0.57799  0.90579  Biso   1.000  C
  C425     1.0000 0.72552  0.54691  0.83849  Biso   1.000  C
  C426     1.0000 0.73447  0.62409  0.77502  Biso   1.000  C
  H341     1.0000 0.72498  0.71483  0.79169  Biso   1.000  H
  C427     1.0000 0.80196  0.93651  0.93359  Biso   1.000  C
  C428     1.0000 0.76747  0.01880  0.90931  Biso   1.000  C
  C429     1.0000 0.78747  0.82461  0.92821  Biso   1.000  C
  H342     1.0000 0.74936  0.80912  0.89332  Biso   1.000  H
  O16      1.0000 0.99601  0.76311  0.73330  Biso   1.000  O
  C430     1.0000 0.98237  0.80883  0.82921  Biso   1.000  C
  C431     1.0000 0.93957  0.87870  0.81741  Biso   1.000  C
  C432     1.0000 0.98258  0.88932  0.77502  Biso   1.000  C
  H343     1.0000 0.96418  0.65872  0.63019  Biso   1.000  H
  N21      1.0000 0.00007  0.68432  0.66040  Biso   1.000  N
  C433     1.0000 0.69557  0.51701  0.92041  Biso   1.000  C
  H344     1.0000 0.68827  0.60973  0.92379  Biso   1.000  H
  C434     1.0000 0.72827  0.48493  0.86002  Biso   1.000  C
  C435     1.0000 0.73507  0.56363  0.79202  Biso   1.000  C
  H345     1.0000 0.74136  0.63330  0.74392  Biso   1.000  H
  C436     1.0000 0.82275  0.98484  0.94680  Biso   1.000  C
  C437     1.0000 0.80766  0.87114  0.94421  Biso   1.000  C
  C438     1.0000 0.78496  0.06202  0.92802  Biso   1.000  C
  H346     1.0000 0.74966  0.03108  0.89380  Biso   1.000  H
  H347     1.0000 0.79156  0.78120  0.93429  Biso   1.000  H
  H348     1.0000 0.97186  0.77553  0.84491  Biso   1.000  H
  H349     1.0000 0.99756  0.78980  0.81210  Biso   1.000  H
  H350     1.0000 0.99026  0.83821  0.85460  Biso   1.000  H
  H351     1.0000 0.92636  0.84799  0.82951  Biso   1.000  H
  H352     1.0000 0.94796  0.90364  0.84540  Biso   1.000  H
  H353     1.0000 0.92948  0.90704  0.79332  Biso   1.000  H
  H354     1.0000 0.97256  0.91653  0.74941  Biso   1.000  H
  H355     1.0000 0.99047  0.91521  0.80230  Biso   1.000  H
  H356     1.0000 0.99777  0.86684  0.75980  Biso   1.000  H
  C439     1.0000 0.01588  0.64591  0.62681  Biso   1.000  C
  C440     1.0000 0.71066  0.46769  0.89681  Biso   1.000  C
  H357     1.0000 0.68436  0.50642  0.94662  Biso   1.000  H
  C441     1.0000 0.74698  0.43699  0.84499  Biso   1.000  C
  H358     1.0000 0.74218  0.53141  0.77202  Biso   1.000  H
  C442     1.0000 0.85186  0.97440  0.96002  Biso   1.000  C
  C443     1.0000 0.81245  0.04780  0.94910  Biso   1.000  C
  H359     1.0000 0.82487  0.85900  0.96180  Biso   1.000  H
  H360     1.0000 0.77887  0.10472  0.92739  Biso   1.000  H
  C444     1.0000 0.03558  0.60269  0.65680  Biso   1.000  C
  H361     1.0000 0.02678  0.67383  0.60610  Biso   1.000  H
  H362     1.0000 0.00268  0.62069  0.60461  Biso   1.000  H
  C445     1.0000 0.70797  0.40449  0.91251  Biso   1.000  C
  C446     1.0000 0.77226  0.44799  0.82049  Biso   1.000  C
  C447     1.0000 0.74117  0.37189  0.85390  Biso   1.000  C
  C448     1.0000 0.86827  0.91960  0.94432  Biso   1.000  C
  C449     1.0000 0.86736  0.01842  0.99101  Biso   1.000  C
  C450     1.0000 0.82966  0.09372  0.97241  Biso   1.000  C
  H363     1.0000 0.04967  0.58611  0.63531  Biso   1.000  H
  H364     1.0000 0.04577  0.62721  0.68390  Biso   1.000  H
  N22      1.0000 0.02128  0.54960  0.67829  Biso   1.000  N
  C451     1.0000 0.72046  0.35772  0.88912  Biso   1.000  C
  H365     1.0000 0.69737  0.39509  0.93971  Biso   1.000  H
  C452     1.0000 0.78837  0.50671  0.82521  Biso   1.000  C
  C453     1.0000 0.78387  0.39929  0.79291  Biso   1.000  C
  C454     1.0000 0.75457  0.32291  0.83100  Biso   1.000  C
  C455     1.0000 0.86156  0.88512  0.89911  Biso   1.000  C
  C456     1.0000 0.89307  0.90420  0.97401  Biso   1.000  C
  C457     1.0000 0.85456  0.08210  0.99632  Biso   1.000  C
  C458     1.0000 0.89249  0.00742  0.01588  Biso   1.000  C
  H366     1.0000 0.82317  0.13618  0.97100  Biso   1.000  H
  C459     1.0000 0.01507  0.49972  0.64199  Biso   1.000  C
  C460     1.0000 0.03596  0.52730  0.72321  Biso   1.000  C
  H367     1.0000 0.71576  0.31502  0.89551  Biso   1.000  H
  C461     1.0000 0.78545  0.55073  0.86269  Biso   1.000  C
  C462     1.0000 0.80945  0.51823  0.79191  Biso   1.000  C
  C463     1.0000 0.80617  0.41120  0.76229  Biso   1.000  C
  C464     1.0000 0.77328  0.33590  0.79740  Biso   1.000  C
  H368     1.0000 0.75056  0.28030  0.83890  Biso   1.000  H
  C465     1.0000 0.84267  0.90661  0.86021  Biso   1.000  C
  C466     1.0000 0.87586  0.82711  0.89139  Biso   1.000  C
  C467     1.0000 0.90695  0.84662  0.96380  Biso   1.000  C
  C468     1.0000 0.90469  0.94502  0.01150  Biso   1.000  C
  H369     1.0000 0.86410  0.11370  0.01640  Biso   1.000  H
  H370     1.0000 0.90198  0.03921  0.03578  Biso   1.000  H
  C469     1.0000 0.98928  0.46301  0.65309  Biso   1.000  C
  H371     1.0000 0.03137  0.47062  0.64221  Biso   1.000  H
  H372     1.0000 0.01197  0.51852  0.60840  Biso   1.000  H
  H373     1.0000 0.05637  0.52579  0.71901  Biso   1.000  H
  H374     1.0000 0.02968  0.48380  0.72989  Biso   1.000  H
  C470     1.0000 0.03087  0.56991  0.76790  Biso   1.000  C
  C471     1.0000 0.80086  0.60661  0.86581  Biso   1.000  C
  H375     1.0000 0.77256  0.54232  0.88690  Biso   1.000  H
  C472     1.0000 0.82398  0.57841  0.79362  Biso   1.000  C
  C473     1.0000 0.81687  0.46953  0.75921  Biso   1.000  C
  H376     1.0000 0.81357  0.37761  0.74399  Biso   1.000  H
  H377     1.0000 0.77937  0.30331  0.77669  Biso   1.000  H
  C474     1.0000 0.83568  0.87232  0.81849  Biso   1.000  C
  H378     1.0000 0.83428  0.94700  0.86321  Biso   1.000  H
  C475     1.0000 0.86886  0.79112  0.84751  Biso   1.000  C
  C476     1.0000 0.89917  0.81153  0.92502  Biso   1.000  C
  H379     1.0000 0.92236  0.83321  0.98589  Biso   1.000  H
  H380     1.0000 0.92019  0.93203  0.03340  Biso   1.000  H
  H381     1.0000 0.98837  0.42291  0.63420  Biso   1.000  H
  H382     1.0000 0.99018  0.45291  0.68891  Biso   1.000  H
  N23      1.0000 0.96448  0.50109  0.63898  Biso   1.000  N
  H383     1.0000 0.04567  0.56221  0.79529  Biso   1.000  H
  H384     1.0000 0.03168  0.61493  0.75821  Biso   1.000  H
  N24      1.0000 0.00304  0.55513  0.78441  Biso   1.000  N
  C477     1.0000 0.81886  0.62130  0.82892  Biso   1.000  C
  H385     1.0000 0.79917  0.63481  0.89280  Biso   1.000  H
  C478     1.0000 0.84337  0.59022  0.75691  Biso   1.000  C
  H386     1.0000 0.82967  0.47841  0.73490  Biso   1.000  H
  C479     1.0000 0.84896  0.81351  0.81281  Biso   1.000  C
  H387     1.0000 0.82217  0.88772  0.79369  Biso   1.000  H
  C480     1.0000 0.88336  0.73462  0.83950  Biso   1.000  C
  H388     1.0000 0.90966  0.77430  0.91919  Biso   1.000  H
  C481     1.0000 0.94740  0.51630  0.67161  Biso   1.000  C
  C482     1.0000 0.98526  0.59920  0.78579  Biso   1.000  C
  H389     1.0000 0.82767  0.66160  0.82869  Biso   1.000  H
  C483     1.0000 0.85884  0.59329  0.72480  Biso   1.000  C
  H390     1.0000 0.84387  0.78890  0.78400  Biso   1.000  H
  C484     1.0000 0.89666  0.68720  0.83259  Biso   1.000  C
  H391     1.0000 0.95196  0.50411  0.70509  Biso   1.000  H
  C485     1.0000 0.92164  0.55102  0.65929  Biso   1.000  C
  H392     1.0000 0.98998  0.64020  0.77480  Biso   1.000  H
  C486     1.0000 0.95796  0.58880  0.80371  Biso   1.000  C
  C487     1.0000 0.87807  0.59022  0.68549  Biso   1.000  C
  C488     1.0000 0.91346  0.63349  0.82491  Biso   1.000  C
  C489     1.0000 0.91347  0.57133  0.61122  Biso   1.000  C
  C490     1.0000 0.90409  0.56169  0.69741  Biso   1.000  C
  C491     1.0000 0.94917  0.52801  0.81800  Biso   1.000  C
  C492     1.0000 0.93987  0.64053  0.80709  Biso   1.000  C
  C493     1.0000 0.87037  0.60893  0.63869  Biso   1.000  C
  C494     1.0000 0.90547  0.57241  0.83879  Biso   1.000  C
  O17      1.0000 0.93025  0.55862  0.57451  Biso   1.000  O
  C495     1.0000 0.88757  0.60203  0.59919  Biso   1.000  C
  H393     1.0000 0.90977  0.54960  0.73059  Biso   1.000  H
  O18      1.0000 0.96631  0.47931  0.81481  Biso   1.000  O
  C496     1.0000 0.92177  0.52041  0.83560  Biso   1.000  C
  H394     1.0000 0.94567  0.68111  0.79700  Biso   1.000  H
  H395     1.0000 0.85237  0.62773  0.63201  Biso   1.000  H
  H396     1.0000 0.88758  0.56741  0.85119  Biso   1.000  H
  C497     1.0000 0.87848  0.62659  0.54712  Biso   1.000  C
  C498     1.0000 0.91247  0.45262  0.85111  Biso   1.000  C
  C499     1.0000 0.87409  0.56953  0.51189  Biso   1.000  C
  C500     1.0000 0.90109  0.67000  0.52941  Biso   1.000  C
  C501     1.0000 0.85097  0.66131  0.54519  Biso   1.000  C
  C502     1.0000 0.91236  0.41030  0.80999  Biso   1.000  C
  C503     1.0000 0.88177  0.45560  0.86559  Biso   1.000  C
  C504     1.0000 0.93127  0.43113  0.89740  Biso   1.000  C
  H397     1.0000 0.89168  0.54549  0.51200  Biso   1.000  H
  H398     1.0000 0.85928  0.54242  0.52310  Biso   1.000  H
  H399     1.0000 0.86859  0.58451  0.47819  Biso   1.000  H
  H400     1.0000 0.91907  0.64733  0.53060  Biso   1.000  H
  H401     1.0000 0.89559  0.68333  0.49519  Biso   1.000  H
  H402     1.0000 0.90308  0.70723  0.55090  Biso   1.000  H
  H403     1.0000 0.83637  0.63340  0.55662  Biso   1.000  H
  H404     1.0000 0.85299  0.69854  0.56679  Biso   1.000  H
  H405     1.0000 0.84547  0.67473  0.51100  Biso   1.000  H
  H406     1.0000 0.89997  0.42702  0.78219  Biso   1.000  H
  H407     1.0000 0.93148  0.40590  0.79989  Biso   1.000  H
  H408     1.0000 0.90538  0.36892  0.81960  Biso   1.000  H
  H409     1.0000 0.88076  0.48432  0.89380  Biso   1.000  H
  H410     1.0000 0.86946  0.47119  0.83731  Biso   1.000  H
  H411     1.0000 0.87566  0.41332  0.87472  Biso   1.000  H
  H412     1.0000 0.93027  0.46231  0.92401  Biso   1.000  H
  H413     1.0000 0.92466  0.39013  0.90872  Biso   1.000  H
  H414     1.0000 0.95076  0.42721  0.88901  Biso   1.000  H
  C505     1.0000 0.51587  0.14591  0.62681  Biso   1.000  C
  N25      1.0000 0.50008  0.18432  0.66040  Biso   1.000  N
  C506     1.0000 0.53557  0.10269  0.65680  Biso   1.000  C
  H415     1.0000 0.52677  0.17378  0.60610  Biso   1.000  H
  H416     1.0000 0.50269  0.12069  0.60461  Biso   1.000  H
  C507     1.0000 0.47326  0.18441  0.65539  Biso   1.000  C
  H417     1.0000 0.54968  0.08611  0.63531  Biso   1.000  H
  H418     1.0000 0.54578  0.12721  0.68390  Biso   1.000  H
  N26      1.0000 0.52129  0.04960  0.67829  Biso   1.000  N
  C508     1.0000 0.45597  0.22121  0.68609  Biso   1.000  C
  H419     1.0000 0.46417  0.15872  0.63019  Biso   1.000  H
  C509     1.0000 0.53597  0.02730  0.72321  Biso   1.000  C
  C510     1.0000 0.51508  0.99972  0.64199  Biso   1.000  C
  C511     1.0000 0.42698  0.21932  0.67581  Biso   1.000  C
  C512     1.0000 0.46777  0.26141  0.72339  Biso   1.000  C
  H420     1.0000 0.55636  0.02579  0.71901  Biso   1.000  H
  C513     1.0000 0.53088  0.06991  0.76790  Biso   1.000  C
  H421     1.0000 0.52967  0.98380  0.72989  Biso   1.000  H
  H422     1.0000 0.51198  0.01852  0.60840  Biso   1.000  H
  H423     1.0000 0.53138  0.97062  0.64221  Biso   1.000  H
  C514     1.0000 0.48927  0.96301  0.65309  Biso   1.000  C
  C515     1.0000 0.40947  0.25730  0.70290  Biso   1.000  C
  H424     1.0000 0.41887  0.19230  0.65042  Biso   1.000  H
  C516     1.0000 0.45077  0.29939  0.75260  Biso   1.000  C
  O19      1.0000 0.49599  0.26311  0.73330  Biso   1.000  O
  H425     1.0000 0.54566  0.06221  0.79529  Biso   1.000  H
  H426     1.0000 0.53167  0.11488  0.75821  Biso   1.000  H
  N27      1.0000 0.50303  0.05508  0.78441  Biso   1.000  N
  N28      1.0000 0.46447  0.00109  0.63898  Biso   1.000  N
  H427     1.0000 0.48838  0.92291  0.63420  Biso   1.000  H
  H428     1.0000 0.49017  0.95291  0.68891  Biso   1.000  H
  C517     1.0000 0.37957  0.25560  0.69062  Biso   1.000  C
  C518     1.0000 0.42177  0.29509  0.74110  Biso   1.000  C
  C519     1.0000 0.46276  0.34369  0.79250  Biso   1.000  C
  C520     1.0000 0.48527  0.09920  0.78579  Biso   1.000  C
  C521     1.0000 0.44739  0.01630  0.67161  Biso   1.000  C
  C522     1.0000 0.35528  0.25593  0.67840  Biso   1.000  C
  H429     1.0000 0.40977  0.31908  0.76029  Biso   1.000  H
  C523     1.0000 0.48236  0.30879  0.82921  Biso   1.000  C
  C524     1.0000 0.43956  0.37870  0.81741  Biso   1.000  C
  C525     1.0000 0.48257  0.38932  0.77502  Biso   1.000  C
  H430     1.0000 0.48997  0.14020  0.77480  Biso   1.000  H
  C526     1.0000 0.45797  0.08880  0.80371  Biso   1.000  C
  H431     1.0000 0.45197  0.00411  0.70509  Biso   1.000  H
  C527     1.0000 0.42165  0.05102  0.65929  Biso   1.000  C
  C528     1.0000 0.32627  0.25820  0.65929  Biso   1.000  C
  H432     1.0000 0.47187  0.27548  0.84491  Biso   1.000  H
  H433     1.0000 0.49757  0.28980  0.81210  Biso   1.000  H
  H434     1.0000 0.49027  0.33821  0.85460  Biso   1.000  H
  H435     1.0000 0.42637  0.34799  0.82951  Biso   1.000  H
  H436     1.0000 0.44797  0.40359  0.84540  Biso   1.000  H
  H437     1.0000 0.42947  0.40699  0.79332  Biso   1.000  H
  H438     1.0000 0.47257  0.41649  0.74941  Biso   1.000  H
  H439     1.0000 0.49046  0.41521  0.80230  Biso   1.000  H
  H440     1.0000 0.49776  0.36679  0.75980  Biso   1.000  H
  C529     1.0000 0.44916  0.02801  0.81800  Biso   1.000  C
  C530     1.0000 0.43988  0.14048  0.80709  Biso   1.000  C
  C531     1.0000 0.41348  0.07128  0.61122  Biso   1.000  C
  C532     1.0000 0.40408  0.06169  0.69741  Biso   1.000  C
  C533     1.0000 0.31788  0.29891  0.61842  Biso   1.000  C
  C534     1.0000 0.30627  0.21970  0.67922  Biso   1.000  C
  C535     1.0000 0.42176  0.02041  0.83560  Biso   1.000  C
  O20      1.0000 0.46632  0.97931  0.81481  Biso   1.000  O
  C536     1.0000 0.41347  0.13349  0.82491  Biso   1.000  C
  H441     1.0000 0.44566  0.18111  0.79700  Biso   1.000  H
  O21      1.0000 0.43024  0.05862  0.57451  Biso   1.000  O
  C537     1.0000 0.38759  0.10198  0.59919  Biso   1.000  C
  C538     1.0000 0.37806  0.09022  0.68549  Biso   1.000  C
  H442     1.0000 0.40976  0.04960  0.73059  Biso   1.000  H
  C539     1.0000 0.28868  0.30463  0.60261  Biso   1.000  C
  C540     1.0000 0.33798  0.33420  0.59311  Biso   1.000  C
  C541     1.0000 0.27887  0.22121  0.65929  Biso   1.000  C
  H443     1.0000 0.31157  0.19273  0.70639  Biso   1.000  H
  C542     1.0000 0.40546  0.07241  0.83879  Biso   1.000  C
  C543     1.0000 0.41248  0.95262  0.85111  Biso   1.000  C
  C544     1.0000 0.39668  0.18720  0.83259  Biso   1.000  C
  C545     1.0000 0.37038  0.10888  0.63869  Biso   1.000  C
  C546     1.0000 0.37847  0.12659  0.54712  Biso   1.000  C
  C547     1.0000 0.35885  0.09329  0.72480  Biso   1.000  C
  C548     1.0000 0.28019  0.35210  0.56519  Biso   1.000  C
  C549     1.0000 0.27028  0.26193  0.62198  Biso   1.000  C
  C550     1.0000 0.33027  0.36731  0.55269  Biso   1.000  C
  H444     1.0000 0.35717  0.33373  0.60562  Biso   1.000  H
  H445     1.0000 0.26558  0.19329  0.67180  Biso   1.000  H
  H446     1.0000 0.38756  0.06741  0.85119  Biso   1.000  H
  C551     1.0000 0.41237  0.91030  0.80999  Biso   1.000  C
  C552     1.0000 0.38176  0.95560  0.86559  Biso   1.000  C
  C553     1.0000 0.43126  0.93113  0.89740  Biso   1.000  C
  C554     1.0000 0.38337  0.23462  0.83950  Biso   1.000  C
  H447     1.0000 0.35238  0.12768  0.63201  Biso   1.000  H
  C555     1.0000 0.37407  0.06949  0.51189  Biso   1.000  C
  C556     1.0000 0.40108  0.17000  0.52941  Biso   1.000  C
  C557     1.0000 0.35098  0.16131  0.54519  Biso   1.000  C
  C558     1.0000 0.34336  0.09022  0.75691  Biso   1.000  C
  C559     1.0000 0.25148  0.37052  0.55269  Biso   1.000  C
  C560     1.0000 0.30187  0.37610  0.53669  Biso   1.000  C
  H448     1.0000 0.25117  0.26098  0.60870  Biso   1.000  H
  H449     1.0000 0.34428  0.38550  0.53420  Biso   1.000  H
  H450     1.0000 0.39996  0.92702  0.78219  Biso   1.000  H
  H451     1.0000 0.43147  0.90590  0.79989  Biso   1.000  H
  H452     1.0000 0.40537  0.86892  0.81960  Biso   1.000  H
  H453     1.0000 0.38077  0.98432  0.89380  Biso   1.000  H
  H454     1.0000 0.36947  0.97123  0.83731  Biso   1.000  H
  H455     1.0000 0.37567  0.91332  0.87472  Biso   1.000  H
  H456     1.0000 0.43026  0.96231  0.92401  Biso   1.000  H
  H457     1.0000 0.42467  0.89013  0.90872  Biso   1.000  H
  H458     1.0000 0.45077  0.92721  0.88901  Biso   1.000  H
  C561     1.0000 0.36887  0.29112  0.84751  Biso   1.000  C
  H459     1.0000 0.39167  0.04549  0.51200  Biso   1.000  H
  H460     1.0000 0.35927  0.04242  0.52310  Biso   1.000  H
  H461     1.0000 0.36858  0.08451  0.47819  Biso   1.000  H
  H462     1.0000 0.41908  0.14728  0.53060  Biso   1.000  H
  H463     1.0000 0.39558  0.18333  0.49519  Biso   1.000  H
  H464     1.0000 0.40309  0.20723  0.55090  Biso   1.000  H
  H465     1.0000 0.33638  0.13340  0.55662  Biso   1.000  H
  H466     1.0000 0.35298  0.19849  0.56679  Biso   1.000  H
  H467     1.0000 0.34548  0.17468  0.51100  Biso   1.000  H
  C562     1.0000 0.32396  0.07841  0.79362  Biso   1.000  C
  C563     1.0000 0.24448  0.39372  0.50410  Biso   1.000  C
  C564     1.0000 0.22887  0.36599  0.58561  Biso   1.000  C
  C565     1.0000 0.29359  0.40912  0.49181  Biso   1.000  C
  C566     1.0000 0.34897  0.31351  0.81281  Biso   1.000  C
  C567     1.0000 0.37587  0.32711  0.89139  Biso   1.000  C
  C568     1.0000 0.31888  0.12130  0.82892  Biso   1.000  C
  C569     1.0000 0.30944  0.01819  0.79191  Biso   1.000  C
  C570     1.0000 0.26587  0.41290  0.47429  Biso   1.000  C
  C571     1.0000 0.21589  0.39669  0.48502  Biso   1.000  C
  C572     1.0000 0.20149  0.36273  0.56371  Biso   1.000  C
  C573     1.0000 0.23298  0.36769  0.63962  Biso   1.000  C
  H468     1.0000 0.30748  0.42881  0.47388  Biso   1.000  H
  H469     1.0000 0.34386  0.28890  0.78400  Biso   1.000  H
  C574     1.0000 0.33567  0.37232  0.81849  Biso   1.000  C
  C575     1.0000 0.36157  0.38512  0.89911  Biso   1.000  C
  C576     1.0000 0.39916  0.31153  0.92502  Biso   1.000  C
  H470     1.0000 0.32766  0.16160  0.82869  Biso   1.000  H
  C577     1.0000 0.30087  0.10661  0.86581  Biso   1.000  C
  C578     1.0000 0.28836  0.00671  0.82521  Biso   1.000  C
  C579     1.0000 0.31686  0.96953  0.75921  Biso   1.000  C
  H471     1.0000 0.26109  0.42853  0.44181  Biso   1.000  H
  H472     1.0000 0.21109  0.41162  0.45221  Biso   1.000  H
  C580     1.0000 0.19519  0.37789  0.51390  Biso   1.000  C
  C581     1.0000 0.17918  0.34662  0.59500  Biso   1.000  C
  C582     1.0000 0.21047  0.35040  0.66801  Biso   1.000  C
  C583     1.0000 0.25828  0.39079  0.66530  Biso   1.000  C
  H473     1.0000 0.32216  0.38772  0.79369  Biso   1.000  H
  C584     1.0000 0.34266  0.40661  0.86021  Biso   1.000  C
  C585     1.0000 0.36826  0.41960  0.94432  Biso   1.000  C
  H474     1.0000 0.40967  0.27430  0.91919  Biso   1.000  H
  C586     1.0000 0.40696  0.34662  0.96380  Biso   1.000  C
  H475     1.0000 0.29916  0.13481  0.89280  Biso   1.000  H
  C587     1.0000 0.28546  0.05068  0.86269  Biso   1.000  C
  C588     1.0000 0.27227  0.94804  0.82049  Biso   1.000  C
  H476     1.0000 0.32966  0.97841  0.73490  Biso   1.000  H
  C589     1.0000 0.30618  0.91120  0.76229  Biso   1.000  C
  H477     1.0000 0.17618  0.37520  0.49990  Biso   1.000  H
  H478     1.0000 0.16047  0.34261  0.58012  Biso   1.000  H
  C590     1.0000 0.18398  0.33732  0.64329  Biso   1.000  C
  C591     1.0000 0.21526  0.34880  0.72061  Biso   1.000  C
  H479     1.0000 0.27288  0.40633  0.64659  Biso   1.000  H
  C592     1.0000 0.26217  0.39150  0.71519  Biso   1.000  C
  H480     1.0000 0.33427  0.44700  0.86321  Biso   1.000  H
  C593     1.0000 0.39306  0.40420  0.97401  Biso   1.000  C
  C594     1.0000 0.35187  0.47440  0.96002  Biso   1.000  C
  H481     1.0000 0.42237  0.33321  0.98589  Biso   1.000  H
  H482     1.0000 0.27257  0.04232  0.88690  Biso   1.000  H
  C595     1.0000 0.28386  0.89934  0.79291  Biso   1.000  C
  C596     1.0000 0.24696  0.93703  0.84499  Biso   1.000  C
  H483     1.0000 0.31356  0.87761  0.74399  Biso   1.000  H
  H484     1.0000 0.16927  0.32159  0.66159  Biso   1.000  H
  C597     1.0000 0.24058  0.36882  0.74310  Biso   1.000  C
  C598     1.0000 0.19278  0.32952  0.74911  Biso   1.000  C
  H485     1.0000 0.27926  0.40699  0.73141  Biso   1.000  H
  C599     1.0000 0.40470  0.44502  0.01150  Biso   1.000  C
  C600     1.0000 0.32276  0.48479  0.94680  Biso   1.000  C
  C601     1.0000 0.36737  0.51842  0.99101  Biso   1.000  C
  C602     1.0000 0.27327  0.83590  0.79740  Biso   1.000  C
  C603     1.0000 0.22826  0.98493  0.86002  Biso   1.000  C
  C604     1.0000 0.24116  0.87189  0.85390  Biso   1.000  C
  H486     1.0000 0.24367  0.36750  0.77829  Biso   1.000  H
  C605     1.0000 0.17157  0.31271  0.76671  Biso   1.000  C
  C606     1.0000 0.39248  0.50742  0.01588  Biso   1.000  C
  H487     1.0000 0.42020  0.43203  0.03340  Biso   1.000  H
  C607     1.0000 0.30195  0.43651  0.93359  Biso   1.000  C
  C608     1.0000 0.31246  0.54780  0.94910  Biso   1.000  C
  C609     1.0000 0.35455  0.58210  0.99632  Biso   1.000  C
  C610     1.0000 0.25456  0.82291  0.83100  Biso   1.000  C
  H488     1.0000 0.27936  0.80331  0.77669  Biso   1.000  H
  C611     1.0000 0.22553  0.04691  0.83849  Biso   1.000  C
  C612     1.0000 0.21067  0.96774  0.89681  Biso   1.000  C
  C613     1.0000 0.22047  0.85772  0.88912  Biso   1.000  C
  C614     1.0000 0.14566  0.29282  0.78430  Biso   1.000  C
  H489     1.0000 0.40199  0.53921  0.03578  Biso   1.000  H
  C615     1.0000 0.27487  0.45220  0.91180  Biso   1.000  C
  C616     1.0000 0.30767  0.37109  0.94421  Biso   1.000  C
  C617     1.0000 0.28497  0.56202  0.92802  Biso   1.000  C
  C618     1.0000 0.32965  0.59372  0.97241  Biso   1.000  C
  H490     1.0000 0.36409  0.61370  0.01640  Biso   1.000  H
  H491     1.0000 0.25057  0.78030  0.83890  Biso   1.000  H
  C619     1.0000 0.21177  0.09598  0.86381  Biso   1.000  C
  C620     1.0000 0.23508  0.06358  0.79202  Biso   1.000  C
  C621     1.0000 0.19556  0.01701  0.92041  Biso   1.000  C
  C622     1.0000 0.20796  0.90453  0.91251  Biso   1.000  C
  H492     1.0000 0.21577  0.81502  0.89551  Biso   1.000  H
  C623     1.0000 0.14086  0.22692  0.79091  Biso   1.000  C
  C624     1.0000 0.12437  0.33439  0.79321  Biso   1.000  C
  C625     1.0000 0.25507  0.40411  0.89569  Biso   1.000  C
  C626     1.0000 0.26746  0.51880  0.90931  Biso   1.000  C
  C627     1.0000 0.28746  0.32461  0.92821  Biso   1.000  C
  H493     1.0000 0.32486  0.35900  0.96180  Biso   1.000  H
  H494     1.0000 0.27886  0.60472  0.92739  Biso   1.000  H
  H495     1.0000 0.32316  0.63623  0.97100  Biso   1.000  H
  C628     1.0000 0.21176  0.15838  0.84621  Biso   1.000  C
  C629     1.0000 0.19716  0.07799  0.90579  Biso   1.000  C
  C630     1.0000 0.23446  0.12409  0.77502  Biso   1.000  C
  H496     1.0000 0.24217  0.03141  0.77202  Biso   1.000  H
  H497     1.0000 0.18437  0.00638  0.94662  Biso   1.000  H
  H498     1.0000 0.19736  0.89513  0.93971  Biso   1.000  H
  H499     1.0000 0.15577  0.19821  0.78590  Biso   1.000  H
  C631     1.0000 0.11576  0.20302  0.80401  Biso   1.000  C
  C632     1.0000 0.09906  0.31308  0.80631  Biso   1.000  C
  H500     1.0000 0.12748  0.37851  0.79020  Biso   1.000  H
  C633     1.0000 0.22846  0.42130  0.87290  Biso   1.000  C
  C634     1.0000 0.26236  0.34119  0.90441  Biso   1.000  C
  H501     1.0000 0.24967  0.53113  0.89380  Biso   1.000  H
  H502     1.0000 0.29155  0.28120  0.93429  Biso   1.000  H
  C635     1.0000 0.19916  0.20732  0.87290  Biso   1.000  C
  C636     1.0000 0.22396  0.17232  0.80260  Biso   1.000  C
  H503     1.0000 0.18825  0.10968  0.92379  Biso   1.000  H
  H504     1.0000 0.24137  0.13330  0.74392  Biso   1.000  H
  C637     1.0000 0.09427  0.24681  0.81221  Biso   1.000  C
  C638     1.0000 0.11058  0.13160  0.80661  Biso   1.000  C
  C639     1.0000 0.07636  0.35900  0.81181  Biso   1.000  C
  C640     1.0000 0.20576  0.43883  0.85501  Biso   1.000  C
  H505     1.0000 0.24937  0.30912  0.89332  Biso   1.000  H
  C641     1.0000 0.18756  0.24761  0.89610  Biso   1.000  C
  H506     1.0000 0.22496  0.21479  0.79169  Biso   1.000  H
  O22      1.0000 0.06907  0.22579  0.82550  Biso   1.000  O
  C642     1.0000 0.08806  0.11190  0.76689  Biso   1.000  C
  C643     1.0000 0.10226  0.11351  0.85850  Biso   1.000  C
  C644     1.0000 0.13717  0.09428  0.79781  Biso   1.000  C
  H507     1.0000 0.08027  0.40241  0.80702  Biso   1.000  H
  N29      1.0000 0.05158  0.34360  0.82272  Biso   1.000  N
  C645     1.0000 0.17836  0.46070  0.83660  Biso   1.000  C
  C646     1.0000 0.17226  0.29150  0.92472  Biso   1.000  C
  H508     1.0000 0.07066  0.13491  0.77131  Biso   1.000  H
  H509     1.0000 0.09436  0.12168  0.73412  Biso   1.000  H
  H510     1.0000 0.08467  0.06641  0.76931  Biso   1.000  H
  H511     1.0000 0.11716  0.12669  0.88359  Biso   1.000  H
  H512     1.0000 0.08457  0.13448  0.86470  Biso   1.000  H
  H513     1.0000 0.09977  0.06760  0.86032  Biso   1.000  H
  H514     1.0000 0.15226  0.10590  0.82302  Biso   1.000  H
  H515     1.0000 0.13326  0.04898  0.80000  Biso   1.000  H
  H516     1.0000 0.14297  0.10420  0.76481  Biso   1.000  H
  C647     1.0000 0.02957  0.38762  0.82509  Biso   1.000  C
  C648     1.0000 0.15737  0.46599  0.86949  Biso   1.000  C
  C649     1.0000 0.17236  0.47959  0.78690  Biso   1.000  C
  C650     1.0000 0.14356  0.28710  0.92112  Biso   1.000  C
  C651     1.0000 0.18637  0.33510  0.95590  Biso   1.000  C
  H517     1.0000 0.01347  0.37449  0.80182  Biso   1.000  H
  H518     1.0000 0.03597  0.42943  0.81422  Biso   1.000  H
  C652     1.0000 0.01986  0.39353  0.87591  Biso   1.000  C
  C653     1.0000 0.13138  0.49150  0.85200  Biso   1.000  C
  H519     1.0000 0.16076  0.45253  0.90300  Biso   1.000  H
  C654     1.0000 0.14686  0.50293  0.76830  Biso   1.000  C
  H520     1.0000 0.18687  0.47600  0.76500  Biso   1.000  H
  C655     1.0000 0.12807  0.32820  0.95089  Biso   1.000  C
  H521     1.0000 0.13397  0.25739  0.89940  Biso   1.000  H
  C656     1.0000 0.17275  0.37671  0.98459  Biso   1.000  C
  H522     1.0000 0.20637  0.33632  0.95760  Biso   1.000  H
  H523     1.0000 0.01636  0.35092  0.88912  Biso   1.000  H
  H524     1.0000 0.00186  0.41719  0.87402  Biso   1.000  H
  N30      1.0000 0.04112  0.42683  0.91050  Biso   1.000  N
  C657     1.0000 0.11067  0.49863  0.88912  Biso   1.000  C
  C658     1.0000 0.12538  0.50860  0.80319  Biso   1.000  C
  C659     1.0000 0.14117  0.51800  0.71381  Biso   1.000  C
  C660     1.0000 0.09817  0.32230  0.94821  Biso   1.000  C
  C661     1.0000 0.14345  0.37260  0.98292  Biso   1.000  C
  C662     1.0000 0.18899  0.42343  0.02130  Biso   1.000  C
  C663     1.0000 0.03925  0.40940  0.96121  Biso   1.000  C
  C664     1.0000 0.03906  0.49433  0.90490  Biso   1.000  C
  N31      1.0000 0.08586  0.52083  0.87732  Biso   1.000  N
  H525     1.0000 0.11575  0.48663  0.92249  Biso   1.000  H
  O23      1.0000 0.09983  0.52962  0.78790  Biso   1.000  O
  C665     1.0000 0.12916  0.58791  0.70721  Biso   1.000  C
  C666     1.0000 0.16687  0.51280  0.68449  Biso   1.000  C
  C667     1.0000 0.11878  0.47081  0.69050  Biso   1.000  C
  N32      1.0000 0.08366  0.35461  0.97609  Biso   1.000  N
  H526     1.0000 0.08897  0.29372  0.92509  Biso   1.000  H
  O24      1.0000 0.12830  0.41120  0.01061  Biso   1.000  O
  C668     1.0000 0.18389  0.39863  0.07531  Biso   1.000  C
  C669     1.0000 0.17980  0.49121  0.01009  Biso   1.000  C
  C670     1.0000 0.22058  0.42121  0.01610  Biso   1.000  C
  C671     1.0000 0.05305  0.34823  0.97312  Biso   1.000  C
  H527     1.0000 0.01917  0.40661  0.96781  Biso   1.000  H
  H528     1.0000 0.04816  0.44251  0.98299  Biso   1.000  H
  C672     1.0000 0.06696  0.52990  0.91540  Biso   1.000  C
  H529     1.0000 0.02547  0.51039  0.92761  Biso   1.000  H
  H530     1.0000 0.03136  0.50392  0.87060  Biso   1.000  H
  H531     1.0000 0.12557  0.59740  0.67169  Biso   1.000  H
  H532     1.0000 0.11158  0.59150  0.72332  Biso   1.000  H
  H533     1.0000 0.14297  0.61800  0.72231  Biso   1.000  H
  H534     1.0000 0.16157  0.52319  0.64960  Biso   1.000  H
  H535     1.0000 0.18137  0.54223  0.69811  Biso   1.000  H
  H536     1.0000 0.17416  0.46953  0.68679  Biso   1.000  H
  H537     1.0000 0.11488  0.48021  0.65502  Biso   1.000  H
  H538     1.0000 0.12588  0.42759  0.69451  Biso   1.000  H
  H539     1.0000 0.10137  0.47511  0.70710  Biso   1.000  H
  H540     1.0000 0.16369  0.39962  0.07961  Biso   1.000  H
  H541     1.0000 0.19080  0.35522  0.07928  Biso   1.000  H
  H542     1.0000 0.19389  0.42579  0.10029  Biso   1.000  H
  H543     1.0000 0.18396  0.50231  0.97631  Biso   1.000  H
  H544     1.0000 0.15949  0.49499  0.01291  Biso   1.000  H
  H545     1.0000 0.19000  0.51979  0.03381  Biso   1.000  H
  H546     1.0000 0.22415  0.43321  0.98229  Biso   1.000  H
  H547     1.0000 0.22759  0.37832  0.02301  Biso   1.000  H
  H548     1.0000 0.23019  0.45068  0.03978  Biso   1.000  H
  H549     1.0000 0.04697  0.31691  0.94721  Biso   1.000  H
  H550     1.0000 0.04739  0.33259  0.00519  Biso   1.000  H
  H551     1.0000 0.06295  0.57563  0.91841  Biso   1.000  H
  H552     1.0000 0.07627  0.51540  0.94751  Biso   1.000  H
  C673     1.0000 0.73739  0.23340  0.52559  Biso   1.000  C
  C674     1.0000 0.72248  0.17860  0.55191  Biso   1.000  C
  H553     1.0000 0.72368  0.25451  0.50139  Biso   1.000  H
  H554     1.0000 0.74447  0.26509  0.55038  Biso   1.000  H
  N33      1.0000 0.76059  0.20812  0.50009  Biso   1.000  N
  H555     1.0000 0.70407  0.19372  0.56182  Biso   1.000  H
  H556     1.0000 0.71889  0.14322  0.52841  Biso   1.000  H
  N34      1.0000 0.73928  0.15621  0.59541  Biso   1.000  N
  C675     1.0000 0.78639  0.22499  0.51449  Biso   1.000  C
  C676     1.0000 0.72967  0.09178  0.60580  Biso   1.000  C
  C677     1.0000 0.73888  0.19721  0.63821  Biso   1.000  C
  H557     1.0000 0.78958  0.25149  0.54270  Biso   1.000  H
  C678     1.0000 0.80988  0.20472  0.48899  Biso   1.000  C
  H558     1.0000 0.70888  0.09032  0.59990  Biso   1.000  H
  H559     1.0000 0.73458  0.08219  0.64129  Biso   1.000  H
  C679     1.0000 0.74197  0.04209  0.57510  Biso   1.000  C
  C680     1.0000 0.76317  0.19088  0.67499  Biso   1.000  C
  H560     1.0000 0.72147  0.18829  0.65480  Biso   1.000  H
  H561     1.0000 0.73777  0.24162  0.62659  Biso   1.000  H
  C681     1.0000 0.80628  0.16599  0.44720  Biso   1.000  C
  C682     1.0000 0.83668  0.22839  0.50491  Biso   1.000  C
  H562     1.0000 0.73168  0.00198  0.57852  Biso   1.000  H
  H563     1.0000 0.73967  0.05479  0.53969  Biso   1.000  H
  N35      1.0000 0.77197  0.03240  0.59040  Biso   1.000  N
  H564     1.0000 0.76698  0.14539  0.68089  Biso   1.000  H
  H565     1.0000 0.75836  0.20983  0.70669  Biso   1.000  H
  N36      1.0000 0.78897  0.22149  0.65951  Biso   1.000  N
  O25      1.0000 0.78040  0.14369  0.43202  Biso   1.000  O
  C683     1.0000 0.82949  0.14960  0.42121  Biso   1.000  C
  C684     1.0000 0.85999  0.21190  0.47960  Biso   1.000  C
  H566     1.0000 0.83898  0.25560  0.53290  Biso   1.000  H
  C685     1.0000 0.79047  0.04199  0.55892  Biso   1.000  C
  C686     1.0000 0.80978  0.18701  0.65109  Biso   1.000  C
  C687     1.0000 0.85558  0.17312  0.43881  Biso   1.000  C
  C688     1.0000 0.82618  0.10619  0.37548  Biso   1.000  C
  C689     1.0000 0.88719  0.23821  0.49471  Biso   1.000  C
  H567     1.0000 0.78458  0.05579  0.52622  Biso   1.000  H
  C690     1.0000 0.81997  0.03198  0.57240  Biso   1.000  C
  C691     1.0000 0.83658  0.21351  0.63932  Biso   1.000  C
  H568     1.0000 0.80788  0.14242  0.65261  Biso   1.000  H
  H569     1.0000 0.87149  0.16169  0.42159  Biso   1.000  H
  C692     1.0000 0.81599  0.04048  0.38952  Biso   1.000  C
  C693     1.0000 0.80569  0.13949  0.33499  Biso   1.000  C
  C694     1.0000 0.85428  0.09660  0.35359  Biso   1.000  C
  C695     1.0000 0.90968  0.25909  0.50610  Biso   1.000  C
  C696     1.0000 0.83028  0.01389  0.61972  Biso   1.000  C
  C697     1.0000 0.83927  0.04138  0.53550  Biso   1.000  C
  C698     1.0000 0.84097  0.28162  0.63809  Biso   1.000  C
  C699     1.0000 0.85857  0.17331  0.63011  Biso   1.000  C
  H570     1.0000 0.79788  0.04431  0.40392  Biso   1.000  H
  H571     1.0000 0.81379  0.01389  0.35978  Biso   1.000  H
  H572     1.0000 0.82989  0.02140  0.41390  Biso   1.000  H
  H573     1.0000 0.78739  0.14629  0.34809  Biso   1.000  H
  H574     1.0000 0.81368  0.18030  0.32619  Biso   1.000  H
  H575     1.0000 0.80329  0.11271  0.30541  Biso   1.000  H
  H576     1.0000 0.86169  0.13751  0.34401  Biso   1.000  H
  H577     1.0000 0.86768  0.07671  0.37842  Biso   1.000  H
  H578     1.0000 0.85158  0.06920  0.32430  Biso   1.000  H
  C700     1.0000 0.93648  0.28961  0.51902  Biso   1.000  C
  O26      1.0000 0.81232  0.00501  0.65502  Biso   1.000  O
  C701     1.0000 0.86027  0.00279  0.63212  Biso   1.000  C
  C702     1.0000 0.86718  0.03070  0.54649  Biso   1.000  C
  H579     1.0000 0.83259  0.05508  0.50321  Biso   1.000  H
  O27      1.0000 0.81892  0.31790  0.64522  Biso   1.000  O
  C703     1.0000 0.86758  0.30642  0.63048  Biso   1.000  C
  C704     1.0000 0.88447  0.19679  0.62269  Biso   1.000  C
  H580     1.0000 0.85557  0.12891  0.62911  Biso   1.000  H
  C705     1.0000 0.95728  0.25791  0.54972  Biso   1.000  C
  C706     1.0000 0.94187  0.35333  0.50250  Biso   1.000  C
  C707     1.0000 0.87698  0.01082  0.59459  Biso   1.000  C
  C708     1.0000 0.87127  0.98611  0.68460  Biso   1.000  C
  C709     1.0000 0.88687  0.03921  0.50889  Biso   1.000  C
  C710     1.0000 0.88857  0.26372  0.62310  Biso   1.000  C
  C711     1.0000 0.87278  0.37700  0.63048  Biso   1.000  C
  C712     1.0000 0.90807  0.15650  0.61790  Biso   1.000  C
  H581     1.0000 0.95449  0.21568  0.56011  Biso   1.000  H
  C713     1.0000 0.98157  0.28989  0.56412  Biso   1.000  C
  C714     1.0000 0.96789  0.38049  0.51572  Biso   1.000  C
  C715     1.0000 0.91978  0.38649  0.47370  Biso   1.000  C
  H582     1.0000 0.89648  0.00250  0.60109  Biso   1.000  H
  C716     1.0000 0.86617  0.04128  0.71972  Biso   1.000  C
  C717     1.0000 0.90288  0.97492  0.68709  Biso   1.000  C
  C718     1.0000 0.85858  0.92612  0.70301  Biso   1.000  C
  C719     1.0000 0.90279  0.04922  0.47741  Biso   1.000  C
  H583     1.0000 0.90667  0.27940  0.61779  Biso   1.000  H
  C720     1.0000 0.85547  0.40680  0.58509  Biso   1.000  C
  C721     1.0000 0.86978  0.40241  0.68071  Biso   1.000  C
  C722     1.0000 0.90357  0.39079  0.61909  Biso   1.000  C
  C723     1.0000 0.92878  0.12282  0.61790  Biso   1.000  C
  H584     1.0000 0.99528  0.26991  0.58639  Biso   1.000  H
  C724     1.0000 0.98697  0.34898  0.54779  Biso   1.000  C
  C725     1.0000 0.97249  0.44459  0.49582  Biso   1.000  C
  H585     1.0000 0.90289  0.36542  0.46219  Biso   1.000  H
  C726     1.0000 0.92349  0.44851  0.46331  Biso   1.000  C
  H586     1.0000 0.87447  0.07992  0.70732  Biso   1.000  H
  H587     1.0000 0.84577  0.04738  0.72102  Biso   1.000  H
  H588     1.0000 0.87478  0.03170  0.75301  Biso   1.000  H
  H589     1.0000 0.91218  0.01271  0.67551  Biso   1.000  H
  H590     1.0000 0.90998  0.96580  0.72139  Biso   1.000  H
  H591     1.0000 0.90678  0.93892  0.66590  Biso   1.000  H
  H592     1.0000 0.86647  0.91762  0.73701  Biso   1.000  H
  H593     1.0000 0.83807  0.93094  0.70242  Biso   1.000  H
  H594     1.0000 0.86297  0.89093  0.68141  Biso   1.000  H
  C727     1.0000 0.92089  0.06401  0.43951  Biso   1.000  C
  H595     1.0000 0.85987  0.38479  0.55469  Biso   1.000  H
  H596     1.0000 0.83537  0.40293  0.58921  Biso   1.000  H
  H597     1.0000 0.86047  0.45163  0.58260  Biso   1.000  H
  H598     1.0000 0.87317  0.44809  0.68082  Biso   1.000  H
  H599     1.0000 0.85066  0.39400  0.68991  Biso   1.000  H
  H600     1.0000 0.88358  0.38210  0.70461  Biso   1.000  H
  H601     1.0000 0.90669  0.37473  0.58602  Biso   1.000  H
  H602     1.0000 0.90698  0.43651  0.62020  Biso   1.000  H
  H603     1.0000 0.91667  0.36991  0.64392  Biso   1.000  H
  C728     1.0000 0.95328  0.08441  0.61842  Biso   1.000  C
  H604     1.0000 0.00428  0.36892  0.55881  Biso   1.000  H
  C729     1.0000 0.94828  0.47832  0.47529  Biso   1.000  C
  C730     1.0000 0.99998  0.47501  0.50002  Biso   1.000  C
  H605     1.0000 0.90818  0.47161  0.44709  Biso   1.000  H
  C731     1.0000 0.93549  0.11989  0.44111  Biso   1.000  C
  C732     1.0000 0.92239  0.02272  0.39772  Biso   1.000  C
  C733     1.0000 0.96998  0.07548  0.66582  Biso   1.000  C
  C734     1.0000 0.96028  0.05102  0.57871  Biso   1.000  C
  C735     1.0000 0.95138  0.54573  0.46969  Biso   1.000  C
  C736     1.0000 0.02749  0.44459  0.50421  Biso   1.000  C
  C737     1.0000 0.99998  0.54412  0.50002  Biso   1.000  C
  H606     1.0000 0.93529  0.14662  0.46932  Biso   1.000  H
  C738     1.0000 0.95078  0.13788  0.40098  Biso   1.000  C
  C739     1.0000 0.93958  0.03689  0.35882  Biso   1.000  C
  C740     1.0000 0.90548  0.96490  0.39312  Biso   1.000  C
  C741     1.0000 0.96097  0.10359  0.70899  Biso   1.000  C
  C742     1.0000 0.99448  0.03741  0.66809  Biso   1.000  C
  C743     1.0000 0.98307  0.00798  0.58212  Biso   1.000  C
  H607     1.0000 0.94958  0.05650  0.54771  Biso   1.000  H
  C744     1.0000 0.97577  0.57652  0.48569  Biso   1.000  C
  H608     1.0000 0.93608  0.56939  0.45462  Biso   1.000  H
  C745     1.0000 0.03209  0.38049  0.48431  Biso   1.000  C
  C746     1.0000 0.05168  0.47832  0.52470  Biso   1.000  C
  C747     1.0000 0.02418  0.57652  0.51431  Biso   1.000  C
  H609     1.0000 0.95978  0.17799  0.40139  Biso   1.000  H
  C748     1.0000 0.95299  0.09830  0.36179  Biso   1.000  C
  C749     1.0000 0.94150  0.99523  0.31728  Biso   1.000  C
  H610     1.0000 0.89619  0.94974  0.42051  Biso   1.000  H
  C750     1.0000 0.90328  0.93420  0.35039  Biso   1.000  C
  C751     1.0000 0.97478  0.09051  0.75312  Biso   1.000  C
  H611     1.0000 0.94538  0.13160  0.70691  Biso   1.000  H
  C752     1.0000 0.99927  0.00132  0.62622  Biso   1.000  C
  C753     1.0000 0.01197  0.03222  0.71541  Biso   1.000  C
  H612     1.0000 0.98719  0.98394  0.55398  Biso   1.000  H
  H613     1.0000 0.97598  0.62140  0.48691  Biso   1.000  H
  C754     1.0000 0.01298  0.34898  0.45221  Biso   1.000  C
  C755     1.0000 0.05808  0.35333  0.49749  Biso   1.000  C
  C756     1.0000 0.07648  0.44851  0.53669  Biso   1.000  C
  C757     1.0000 0.04859  0.54573  0.53030  Biso   1.000  C
  H614     1.0000 0.02397  0.62140  0.51312  Biso   1.000  H
  H615     1.0000 0.96358  0.11138  0.33551  Biso   1.000  H
  C758     1.0000 0.96079  0.00071  0.27961  Biso   1.000  C
  C759     1.0000 0.92038  0.94743  0.31209  Biso   1.000  C
  H616     1.0000 0.88949  0.90170  0.34560  Biso   1.000  H
  H617     1.0000 0.96727  0.10590  0.78219  Biso   1.000  H
  C760     1.0000 0.00038  0.05409  0.75850  Biso   1.000  C
  H618     1.0000 0.01418  0.97133  0.62841  Biso   1.000  H
  C761     1.0000 0.03917  0.00071  0.72042  Biso   1.000  C
  H619     1.0000 0.99568  0.36892  0.44122  Biso   1.000  H
  C762     1.0000 0.01838  0.28989  0.43591  Biso   1.000  C
  C763     1.0000 0.06347  0.28961  0.48101  Biso   1.000  C
  C764     1.0000 0.08017  0.38649  0.52629  Biso   1.000  C
  H620     1.0000 0.09177  0.47161  0.55291  Biso   1.000  H
  H621     1.0000 0.06389  0.56939  0.54541  Biso   1.000  H
  C765     1.0000 0.98798  0.03222  0.28458  Biso   1.000  C
  C766     1.0000 0.95219  0.97544  0.23310  Biso   1.000  C
  C767     1.0000 0.91570  0.91493  0.26491  Biso   1.000  C
  C768     1.0000 0.01247  0.04029  0.80401  Biso   1.000  C
  C769     1.0000 0.05848  0.99523  0.68271  Biso   1.000  C
  C770     1.0000 0.04776  0.97544  0.76689  Biso   1.000  C
  C771     1.0000 0.04267  0.25791  0.45031  Biso   1.000  C
  H622     1.0000 0.00469  0.26991  0.41360  Biso   1.000  H
  C772     1.0000 0.09027  0.25909  0.49389  Biso   1.000  C
  H623     1.0000 0.09708  0.36542  0.53780  Biso   1.000  H
  C773     1.0000 0.99960  0.05409  0.24149  Biso   1.000  C
  C774     1.0000 0.00549  0.03741  0.33191  Biso   1.000  C
  C775     1.0000 0.93070  0.93340  0.22531  Biso   1.000  C
  C776     1.0000 0.96560  0.99821  0.18971  Biso   1.000  C
  H624     1.0000 0.90250  0.88129  0.26101  Biso   1.000  H
  C777     1.0000 0.03437  0.99821  0.81032  Biso   1.000  C
  H625     1.0000 0.00567  0.06009  0.83229  Biso   1.000  H
  C778     1.0000 0.07957  0.94743  0.68791  Biso   1.000  C
  C779     1.0000 0.06037  0.03689  0.64121  Biso   1.000  C
  C780     1.0000 0.06927  0.93340  0.77469  Biso   1.000  C
  H626     1.0000 0.04549  0.21568  0.43988  Biso   1.000  H
  C781     1.0000 0.11278  0.23821  0.50529  Biso   1.000  C
  C782     1.0000 0.98748  0.04029  0.19598  Biso   1.000  C
  C783     1.0000 0.02519  0.09051  0.24691  Biso   1.000  C
  C784     1.0000 0.02999  0.07548  0.33421  Biso   1.000  C
  C785     1.0000 0.00068  0.00132  0.37381  Biso   1.000  C
  H627     1.0000 0.92598  0.91672  0.19301  Biso   1.000  H
  H628     1.0000 0.95910  0.98403  0.15742  Biso   1.000  H
  H629     1.0000 0.04087  0.98403  0.84261  Biso   1.000  H
  C786     1.0000 0.09667  0.93420  0.64960  Biso   1.000  C
  C787     1.0000 0.08427  0.91493  0.73512  Biso   1.000  C
  C788     1.0000 0.04698  0.09830  0.63821  Biso   1.000  C
  C789     1.0000 0.07758  0.02272  0.60231  Biso   1.000  C
  H630     1.0000 0.07397  0.91672  0.80702  Biso   1.000  H
  C790     1.0000 0.13998  0.21190  0.52039  Biso   1.000  C
  H631     1.0000 0.99430  0.06009  0.16770  Biso   1.000  H
  H632     1.0000 0.03268  0.10590  0.21781  Biso   1.000  H
  C791     1.0000 0.03898  0.10359  0.29100  Biso   1.000  C
  C792     1.0000 0.04669  0.08441  0.38161  Biso   1.000  C
  H633     1.0000 0.98579  0.97133  0.37159  Biso   1.000  H
  C793     1.0000 0.01688  0.00798  0.41791  Biso   1.000  C
  C794     1.0000 0.09447  0.96490  0.60691  Biso   1.000  C
  H634     1.0000 0.11048  0.90170  0.65439  Biso   1.000  H
  H635     1.0000 0.09748  0.88129  0.73902  Biso   1.000  H
  C795     1.0000 0.04917  0.13788  0.59901  Biso   1.000  C
  H636     1.0000 0.03637  0.11138  0.66452  Biso   1.000  H
  C796     1.0000 0.07908  0.06401  0.56052  Biso   1.000  C
  C797     1.0000 0.14437  0.17312  0.56119  Biso   1.000  C
  C798     1.0000 0.16327  0.22839  0.49512  Biso   1.000  C
  H637     1.0000 0.05459  0.13160  0.29308  Biso   1.000  H
  C799     1.0000 0.03967  0.05102  0.42129  Biso   1.000  C
  C800     1.0000 0.07119  0.12282  0.38209  Biso   1.000  C
  H638     1.0000 0.01279  0.98394  0.44601  Biso   1.000  H
  H639     1.0000 0.10378  0.94974  0.57948  Biso   1.000  H
  C801     1.0000 0.06448  0.11989  0.55892  Biso   1.000  C
  H640     1.0000 0.04017  0.17799  0.59860  Biso   1.000  H
  C802     1.0000 0.09719  0.04922  0.52262  Biso   1.000  C
  C803     1.0000 0.17048  0.14960  0.57882  Biso   1.000  C
  H641     1.0000 0.12848  0.16169  0.57841  Biso   1.000  H
  C804     1.0000 0.19007  0.20472  0.51100  Biso   1.000  C
  H642     1.0000 0.16097  0.25560  0.46709  Biso   1.000  H
  H643     1.0000 0.05039  0.05650  0.45232  Biso   1.000  H
  C805     1.0000 0.09189  0.15650  0.38209  Biso   1.000  C
  H644     1.0000 0.06469  0.14662  0.53071  Biso   1.000  H
  C806     1.0000 0.11308  0.03921  0.49111  Biso   1.000  C
  C807     1.0000 0.19367  0.16599  0.55280  Biso   1.000  C
  C808     1.0000 0.17377  0.10619  0.62451  Biso   1.000  C
  C809     1.0000 0.21358  0.22499  0.48550  Biso   1.000  C
  C810     1.0000 0.11548  0.19679  0.37730  Biso   1.000  C
  C811     1.0000 0.13277  0.03070  0.45351  Biso   1.000  C
  O28      1.0000 0.21956  0.14369  0.56802  Biso   1.000  O
  C812     1.0000 0.18398  0.04048  0.61052  Biso   1.000  C
  C813     1.0000 0.19426  0.13949  0.66500  Biso   1.000  C
  C814     1.0000 0.14567  0.09660  0.64641  Biso   1.000  C
  H645     1.0000 0.21039  0.25149  0.45729  Biso   1.000  H
  N37      1.0000 0.23939  0.20812  0.49990  Biso   1.000  N
  C815     1.0000 0.11139  0.26372  0.37690  Biso   1.000  C
  C816     1.0000 0.14138  0.17331  0.36992  Biso   1.000  C
  C817     1.0000 0.12299  0.01082  0.40540  Biso   1.000  C
  C818     1.0000 0.16068  0.04138  0.46449  Biso   1.000  C
  H646     1.0000 0.20207  0.04431  0.59611  Biso   1.000  H
  H647     1.0000 0.18618  0.01389  0.64021  Biso   1.000  H
  H648     1.0000 0.17008  0.02140  0.58609  Biso   1.000  H
  H649     1.0000 0.21258  0.14629  0.65190  Biso   1.000  H
  H650     1.0000 0.18627  0.18030  0.67380  Biso   1.000  H
  H651     1.0000 0.19666  0.11271  0.69459  Biso   1.000  H
  H652     1.0000 0.13827  0.13751  0.65602  Biso   1.000  H
  H653     1.0000 0.13228  0.07671  0.62161  Biso   1.000  H
  H654     1.0000 0.14837  0.06920  0.67569  Biso   1.000  H
  C819     1.0000 0.26258  0.23340  0.47440  Biso   1.000  C
  H655     1.0000 0.09328  0.27940  0.38220  Biso   1.000  H
  C820     1.0000 0.13240  0.30642  0.36951  Biso   1.000  C
  C821     1.0000 0.16339  0.21351  0.36071  Biso   1.000  C
  H656     1.0000 0.14439  0.12891  0.37092  Biso   1.000  H
  C822     1.0000 0.13969  0.00279  0.36791  Biso   1.000  C
  H657     1.0000 0.10349  0.00250  0.39891  Biso   1.000  H
  C823     1.0000 0.17998  0.03198  0.42760  Biso   1.000  C
  H658     1.0000 0.16739  0.05508  0.49679  Biso   1.000  H
  C824     1.0000 0.27749  0.17860  0.44809  Biso   1.000  C
  H659     1.0000 0.27629  0.25451  0.49860  Biso   1.000  H
  H660     1.0000 0.25548  0.26509  0.44961  Biso   1.000  H
  C825     1.0000 0.15898  0.28162  0.36190  Biso   1.000  C
  C826     1.0000 0.12719  0.37700  0.36951  Biso   1.000  C
  C827     1.0000 0.19019  0.18701  0.34891  Biso   1.000  C
  C828     1.0000 0.12868  0.98611  0.31539  Biso   1.000  C
  C829     1.0000 0.16969  0.01389  0.38031  Biso   1.000  C
  C830     1.0000 0.20948  0.04199  0.44111  Biso   1.000  C
  H661     1.0000 0.29588  0.19372  0.43821  Biso   1.000  H
  H662     1.0000 0.28109  0.14322  0.47162  Biso   1.000  H
  N38      1.0000 0.26069  0.15621  0.40459  Biso   1.000  N
  O29      1.0000 0.18103  0.31790  0.35481  Biso   1.000  O
  C831     1.0000 0.14448  0.40680  0.41490  Biso   1.000  C
  C832     1.0000 0.13019  0.40241  0.31929  Biso   1.000  C
  C833     1.0000 0.09638  0.39079  0.38090  Biso   1.000  C
  H663     1.0000 0.19209  0.14242  0.34739  Biso   1.000  H
  N39      1.0000 0.21098  0.22149  0.34052  Biso   1.000  N
  C834     1.0000 0.09710  0.97492  0.31290  Biso   1.000  C
  C835     1.0000 0.14139  0.92612  0.29702  Biso   1.000  C
  C836     1.0000 0.13378  0.04128  0.28031  Biso   1.000  C
  O30      1.0000 0.18765  0.00501  0.34501  Biso   1.000  O
  H664     1.0000 0.21539  0.05579  0.47381  Biso   1.000  H
  N40      1.0000 0.22798  0.03240  0.40960  Biso   1.000  N
  C837     1.0000 0.27028  0.09178  0.39419  Biso   1.000  C
  C838     1.0000 0.26109  0.19721  0.36179  Biso   1.000  C
  H665     1.0000 0.14008  0.38479  0.44530  Biso   1.000  H
  H666     1.0000 0.16458  0.40293  0.41078  Biso   1.000  H
  H667     1.0000 0.13948  0.45163  0.41739  Biso   1.000  H
  H668     1.0000 0.12679  0.44809  0.31921  Biso   1.000  H
  H669     1.0000 0.14929  0.39400  0.31012  Biso   1.000  H
  H670     1.0000 0.11640  0.38210  0.29538  Biso   1.000  H
  H671     1.0000 0.09329  0.37473  0.41401  Biso   1.000  H
  H672     1.0000 0.09299  0.43651  0.37979  Biso   1.000  H
  H673     1.0000 0.08328  0.36991  0.35611  Biso   1.000  H
  C839     1.0000 0.23678  0.19088  0.32500  Biso   1.000  C
  H674     1.0000 0.09000  0.96580  0.27861  Biso   1.000  H
  H675     1.0000 0.09319  0.93892  0.33410  Biso   1.000  H
  H676     1.0000 0.08779  0.01271  0.32448  Biso   1.000  H
  H677     1.0000 0.13349  0.91762  0.26302  Biso   1.000  H
  H678     1.0000 0.16189  0.93094  0.29761  Biso   1.000  H
  H679     1.0000 0.13698  0.89093  0.31862  Biso   1.000  H
  H680     1.0000 0.12548  0.07992  0.29271  Biso   1.000  H
  H681     1.0000 0.15418  0.04738  0.27902  Biso   1.000  H
  H682     1.0000 0.12520  0.03170  0.24702  Biso   1.000  H
  C840     1.0000 0.25798  0.04209  0.42489  Biso   1.000  C
  H683     1.0000 0.29107  0.09032  0.40009  Biso   1.000  H
  H684     1.0000 0.26539  0.08219  0.35871  Biso   1.000  H
  H685     1.0000 0.27848  0.18829  0.34520  Biso   1.000  H
  H686     1.0000 0.26218  0.24162  0.37341  Biso   1.000  H
  H687     1.0000 0.23299  0.14539  0.31910  Biso   1.000  H
  H688     1.0000 0.24159  0.20983  0.29331  Biso   1.000  H
  H689     1.0000 0.26829  0.00198  0.42151  Biso   1.000  H
  H690     1.0000 0.26028  0.05479  0.46030  Biso   1.000  H
  C841     1.0000 0.41188  0.61190  0.23310  Biso   1.000  C
  C842     1.0000 0.38938  0.63160  0.19338  Biso   1.000  C
  H691     1.0000 0.42930  0.63491  0.22868  Biso   1.000  H
  H692     1.0000 0.40560  0.62173  0.26591  Biso   1.000  H
  H693     1.0000 0.41529  0.56641  0.23069  Biso   1.000  H
  C843     1.0000 0.38420  0.70302  0.19598  Biso   1.000  C
  C844     1.0000 0.39770  0.61351  0.14149  Biso   1.000  C
  C845     1.0000 0.36280  0.59433  0.20222  Biso   1.000  C
  C846     1.0000 0.40570  0.74681  0.18782  Biso   1.000  C
  C847     1.0000 0.35910  0.72692  0.20909  Biso   1.000  C
  H694     1.0000 0.38280  0.62669  0.11640  Biso   1.000  H
  H695     1.0000 0.41539  0.63453  0.13529  Biso   1.000  H
  H696     1.0000 0.40019  0.56760  0.13971  Biso   1.000  H
  H697     1.0000 0.34770  0.60590  0.17702  Biso   1.000  H
  H698     1.0000 0.36670  0.54903  0.19999  Biso   1.000  H
  H699     1.0000 0.35699  0.60420  0.23522  Biso   1.000  H
  C848     1.0000 0.40090  0.81313  0.19372  Biso   1.000  C
  O31      1.0000 0.43089  0.72579  0.17449  Biso   1.000  O
  C849     1.0000 0.35430  0.79282  0.21569  Biso   1.000  C
  H700     1.0000 0.34419  0.69821  0.21410  Biso   1.000  H
  C850     1.0000 0.42360  0.85900  0.18819  Biso   1.000  C
  C851     1.0000 0.37559  0.83444  0.20678  Biso   1.000  C
  C852     1.0000 0.32839  0.81271  0.23329  Biso   1.000  C
  N41      1.0000 0.44836  0.84360  0.17731  Biso   1.000  N
  H701     1.0000 0.41970  0.90241  0.19301  Biso   1.000  H
  H702     1.0000 0.37248  0.87851  0.20979  Biso   1.000  H
  C853     1.0000 0.30718  0.82952  0.25092  Biso   1.000  C
  C854     1.0000 0.47039  0.88762  0.17490  Biso   1.000  C
  C855     1.0000 0.28470  0.84880  0.27939  Biso   1.000  C
  C856     1.0000 0.48010  0.89353  0.12409  Biso   1.000  C
  H703     1.0000 0.48649  0.87454  0.19821  Biso   1.000  H
  H704     1.0000 0.46399  0.92943  0.18581  Biso   1.000  H
  C857     1.0000 0.28950  0.85040  0.33202  Biso   1.000  C
  C858     1.0000 0.25938  0.86882  0.25689  Biso   1.000  C
  N42      1.0000 0.45884  0.92683  0.08949  Biso   1.000  N
  H705     1.0000 0.48360  0.85092  0.11091  Biso   1.000  H
  H706     1.0000 0.49810  0.91719  0.12602  Biso   1.000  H
  C859     1.0000 0.31599  0.83732  0.35670  Biso   1.000  C
  C860     1.0000 0.26699  0.86774  0.36041  Biso   1.000  C
  C861     1.0000 0.23780  0.89150  0.28481  Biso   1.000  C
  H707     1.0000 0.25629  0.86750  0.22171  Biso   1.000  H
  C862     1.0000 0.46071  0.90940  0.03879  Biso   1.000  C
  C863     1.0000 0.46090  0.99433  0.09510  Biso   1.000  C
  C864     1.0000 0.32078  0.84662  0.40499  Biso   1.000  C
  H708     1.0000 0.33069  0.82163  0.33840  Biso   1.000  H
  C865     1.0000 0.27109  0.86604  0.41438  Biso   1.000  C
  C866     1.0000 0.24168  0.89084  0.33469  Biso   1.000  C
  H709     1.0000 0.22068  0.90704  0.26859  Biso   1.000  H
  C867     1.0000 0.44691  0.84823  0.02691  Biso   1.000  C
  H710     1.0000 0.48079  0.90661  0.03222  Biso   1.000  H
  H711     1.0000 0.45180  0.94251  0.01700  Biso   1.000  H
  C868     1.0000 0.43300  0.02990  0.08459  Biso   1.000  C
  H712     1.0000 0.47449  0.01039  0.07242  Biso   1.000  H
  H713     1.0000 0.46858  0.00392  0.12939  Biso   1.000  H
  C869     1.0000 0.29848  0.86273  0.43628  Biso   1.000  C
  H714     1.0000 0.33947  0.84261  0.41991  Biso   1.000  H
  C870     1.0000 0.24849  0.87052  0.44731  Biso   1.000  C
  H715     1.0000 0.22708  0.90633  0.35340  Biso   1.000  H
  N43      1.0000 0.41631  0.85461  0.02390  Biso   1.000  N
  H716     1.0000 0.45299  0.81691  0.05282  Biso   1.000  H
  H717     1.0000 0.45257  0.83259  0.99480  Biso   1.000  H
  H718     1.0000 0.43699  0.07558  0.08159  Biso   1.000  H
  H719     1.0000 0.42369  0.01540  0.05248  Biso   1.000  H
  N44      1.0000 0.41411  0.02078  0.12271  Biso   1.000  N
  C871     1.0000 0.30477  0.87789  0.48610  Biso   1.000  C
  C872     1.0000 0.21977  0.85210  0.43480  Biso   1.000  C
  C873     1.0000 0.25548  0.89372  0.49590  Biso   1.000  C
  C874     1.0000 0.40179  0.82230  0.05182  Biso   1.000  C
  C875     1.0000 0.38929  0.99863  0.11091  Biso   1.000  C
  C876     1.0000 0.28407  0.89669  0.51501  Biso   1.000  C
  H720     1.0000 0.32378  0.87520  0.50009  Biso   1.000  H
  C877     1.0000 0.21128  0.80463  0.39738  Biso   1.000  C
  C878     1.0000 0.19809  0.87610  0.46331  Biso   1.000  C
  C879     1.0000 0.23409  0.91290  0.52570  Biso   1.000  C
  C880     1.0000 0.37189  0.82820  0.04911  Biso   1.000  C
  H721     1.0000 0.41099  0.79372  0.07490  Biso   1.000  H
  C881     1.0000 0.36859  0.99150  0.14799  Biso   1.000  C
  H722     1.0000 0.38421  0.98663  0.07750  Biso   1.000  H
  H723     1.0000 0.28887  0.91162  0.54779  Biso   1.000  H
  C882     1.0000 0.18208  0.79891  0.38161  Biso   1.000  C
  C883     1.0000 0.22968  0.76193  0.37801  Biso   1.000  C
  C884     1.0000 0.16969  0.86731  0.44731  Biso   1.000  C
  C885     1.0000 0.20637  0.90912  0.50822  Biso   1.000  C
  H724     1.0000 0.23888  0.92853  0.55822  Biso   1.000  H
  C886     1.0000 0.35640  0.78710  0.07891  Biso   1.000  C
  C887     1.0000 0.35649  0.87260  0.01711  Biso   1.000  C
  C888     1.0000 0.34259  0.96604  0.13051  Biso   1.000  C
  C889     1.0000 0.37458  0.00860  0.19680  Biso   1.000  C
  C890     1.0000 0.17369  0.75820  0.34071  Biso   1.000  C
  C891     1.0000 0.16198  0.83420  0.40689  Biso   1.000  C
  C892     1.0000 0.22109  0.72121  0.34071  Biso   1.000  C
  H725     1.0000 0.24879  0.76103  0.39130  Biso   1.000  H
  H726     1.0000 0.15568  0.88550  0.46579  Biso   1.000  H
  H727     1.0000 0.19248  0.92881  0.52611  Biso   1.000  H
  C893     1.0000 0.32770  0.79150  0.07531  Biso   1.000  C
  H728     1.0000 0.36599  0.75739  0.10059  Biso   1.000  H
  C894     1.0000 0.32721  0.87671  0.01540  Biso   1.000  C
  O32      1.0000 0.37167  0.91120  0.98942  Biso   1.000  O
  C895     1.0000 0.32160  0.96070  0.16339  Biso   1.000  C
  H729     1.0000 0.33920  0.95253  0.09699  Biso   1.000  H
  O33      1.0000 0.40014  0.02962  0.21209  Biso   1.000  O
  C896     1.0000 0.35308  0.00288  0.23169  Biso   1.000  C
  C897     1.0000 0.14468  0.75593  0.32159  Biso   1.000  C
  C898     1.0000 0.19370  0.71970  0.32081  Biso   1.000  C
  H730     1.0000 0.14278  0.83373  0.39441  Biso   1.000  H
  H731     1.0000 0.23438  0.69329  0.32820  Biso   1.000  H
  C899     1.0000 0.31240  0.74761  0.10389  Biso   1.000  C
  C900     1.0000 0.31359  0.83510  0.04410  Biso   1.000  C
  C901     1.0000 0.31097  0.92343  0.97869  Biso   1.000  C
  C902     1.0000 0.29420  0.93883  0.14498  Biso   1.000  C
  C903     1.0000 0.32760  0.97964  0.21309  Biso   1.000  C
  C904     1.0000 0.35879  0.01800  0.28622  Biso   1.000  C
  C905     1.0000 0.12039  0.75560  0.30941  Biso   1.000  C
  H732     1.0000 0.18839  0.69273  0.29360  Biso   1.000  H
  C906     1.0000 0.30080  0.70732  0.12709  Biso   1.000  C
  H733     1.0000 0.29359  0.83632  0.04239  Biso   1.000  H
  C907     1.0000 0.31608  0.89863  0.92472  Biso   1.000  C
  C908     1.0000 0.32016  0.99121  0.98990  Biso   1.000  C
  C909     1.0000 0.27938  0.92121  0.98393  Biso   1.000  C
  C910     1.0000 0.27150  0.92130  0.12709  Biso   1.000  C
  H734     1.0000 0.31309  0.97600  0.23499  Biso   1.000  H
  C911     1.0000 0.38118  0.97081  0.30949  Biso   1.000  C
  C912     1.0000 0.37078  0.08791  0.29279  Biso   1.000  C
  C913     1.0000 0.33309  0.01280  0.31550  Biso   1.000  C
  C914     1.0000 0.09049  0.75730  0.29709  Biso   1.000  C
  C915     1.0000 0.28820  0.65843  0.15382  Biso   1.000  C
  H735     1.0000 0.33627  0.89962  0.92042  Biso   1.000  H
  H736     1.0000 0.30916  0.85522  0.92072  Biso   1.000  H
  H737     1.0000 0.30607  0.92584  0.89971  Biso   1.000  H
  H738     1.0000 0.34047  0.99504  0.98712  Biso   1.000  H
  H739     1.0000 0.30996  0.01979  0.96622  Biso   1.000  H
  H740     1.0000 0.31600  0.00231  0.02372  Biso   1.000  H
  H741     1.0000 0.27579  0.93321  0.01771  Biso   1.000  H
  H742     1.0000 0.27237  0.87832  0.97702  Biso   1.000  H
  H743     1.0000 0.26977  0.95073  0.96021  Biso   1.000  H
  C916     1.0000 0.24489  0.90411  0.10430  Biso   1.000  C
  H744     1.0000 0.38509  0.98021  0.34501  Biso   1.000  H
  H745     1.0000 0.37408  0.92763  0.30552  Biso   1.000  H
  H746     1.0000 0.39860  0.97511  0.29290  Biso   1.000  H
  H747     1.0000 0.37439  0.09740  0.32831  Biso   1.000  H
  H748     1.0000 0.38839  0.09150  0.27671  Biso   1.000  H
  H749     1.0000 0.35699  0.11800  0.27772  Biso   1.000  H
  H750     1.0000 0.32578  0.96953  0.31320  Biso   1.000  H
  H751     1.0000 0.33839  0.02319  0.35039  Biso   1.000  H
  H752     1.0000 0.31860  0.04218  0.30192  Biso   1.000  H
  C917     1.0000 0.07298  0.71932  0.32419  Biso   1.000  C
  C918     1.0000 0.07819  0.79513  0.25890  Biso   1.000  C
  C919     1.0000 0.28819  0.59603  0.13619  Biso   1.000  C
  C920     1.0000 0.27600  0.67232  0.19739  Biso   1.000  C
  C921     1.0000 0.22509  0.95220  0.08819  Biso   1.000  C
  C922     1.0000 0.23761  0.84124  0.09562  Biso   1.000  C
  C923     1.0000 0.04400  0.72121  0.31391  Biso   1.000  C
  H753     1.0000 0.08110  0.69230  0.34961  Biso   1.000  H
  C924     1.0000 0.04919  0.79943  0.24739  Biso   1.000  C
  H754     1.0000 0.09019  0.81913  0.23971  Biso   1.000  H
  C925     1.0000 0.27443  0.54691  0.16150  Biso   1.000  C
  C926     1.0000 0.30280  0.57799  0.09421  Biso   1.000  C
  C927     1.0000 0.26550  0.62409  0.22501  Biso   1.000  C
  H755     1.0000 0.27500  0.71483  0.20831  Biso   1.000  H
  C928     1.0000 0.19799  0.93651  0.06640  Biso   1.000  C
  C929     1.0000 0.23250  0.01880  0.09072  Biso   1.000  C
  C930     1.0000 0.21250  0.82461  0.07179  Biso   1.000  C
  H756     1.0000 0.25059  0.80912  0.10671  Biso   1.000  H
  C931     1.0000 0.02668  0.68441  0.34460  Biso   1.000  C
  C932     1.0000 0.03220  0.76141  0.27660  Biso   1.000  C
  C933     1.0000 0.03720  0.84369  0.20749  Biso   1.000  C
  C934     1.0000 0.27169  0.48493  0.14001  Biso   1.000  C
  C935     1.0000 0.26489  0.56363  0.20801  Biso   1.000  C
  C936     1.0000 0.30440  0.51701  0.07962  Biso   1.000  C
  H757     1.0000 0.31171  0.60973  0.07620  Biso   1.000  H
  H758     1.0000 0.25859  0.63330  0.25611  Biso   1.000  H
  C937     1.0000 0.17720  0.98484  0.05319  Biso   1.000  C
  C938     1.0000 0.19229  0.87114  0.05579  Biso   1.000  C
  C939     1.0000 0.21499  0.06202  0.07201  Biso   1.000  C
  H759     1.0000 0.25029  0.03108  0.10619  Biso   1.000  H
  H760     1.0000 0.20841  0.78120  0.06570  Biso   1.000  H
  N45      1.0000 0.99988  0.68432  0.33959  Biso   1.000  N
  H761     1.0000 0.03579  0.65872  0.36981  Biso   1.000  H
  O34      1.0000 0.00397  0.76311  0.26669  Biso   1.000  O
  C940     1.0000 0.01760  0.80883  0.17082  Biso   1.000  C
  C941     1.0000 0.06038  0.87870  0.18258  Biso   1.000  C
  C942     1.0000 0.01739  0.88932  0.22501  Biso   1.000  C
  C943     1.0000 0.25300  0.43699  0.15500  Biso   1.000  C
  C944     1.0000 0.28930  0.46769  0.10319  Biso   1.000  C
  H762     1.0000 0.25780  0.53141  0.22802  Biso   1.000  H
  H763     1.0000 0.31560  0.50642  0.05341  Biso   1.000  H
  C945     1.0000 0.14810  0.97440  0.04001  Biso   1.000  C
  C946     1.0000 0.18750  0.04780  0.05089  Biso   1.000  C
  H764     1.0000 0.17511  0.85900  0.03819  Biso   1.000  H
  H765     1.0000 0.22111  0.10472  0.07260  Biso   1.000  H
  C947     1.0000 0.98409  0.64591  0.37318  Biso   1.000  C
  H766     1.0000 0.02809  0.77553  0.15512  Biso   1.000  H
  H767     1.0000 0.00239  0.78980  0.18789  Biso   1.000  H
  H768     1.0000 0.00969  0.83821  0.14539  Biso   1.000  H
  H769     1.0000 0.07359  0.84799  0.17048  Biso   1.000  H
  H770     1.0000 0.05199  0.90364  0.15460  Biso   1.000  H
  H771     1.0000 0.07049  0.90704  0.20671  Biso   1.000  H
  H772     1.0000 0.02739  0.91653  0.25058  Biso   1.000  H
  H773     1.0000 0.00950  0.91521  0.19769  Biso   1.000  H
  H774     1.0000 0.00220  0.86684  0.24019  Biso   1.000  H
  C948     1.0000 0.22769  0.44799  0.17950  Biso   1.000  C
  C949     1.0000 0.25880  0.37189  0.14610  Biso   1.000  C
  C950     1.0000 0.29200  0.40449  0.08749  Biso   1.000  C
  C951     1.0000 0.13171  0.91960  0.05571  Biso   1.000  C
  C952     1.0000 0.13259  0.01842  0.00898  Biso   1.000  C
  C953     1.0000 0.17029  0.09372  0.02762  Biso   1.000  C
  C954     1.0000 0.96439  0.60269  0.34319  Biso   1.000  C
  H775     1.0000 0.97319  0.67383  0.39390  Biso   1.000  H
  H776     1.0000 0.99728  0.62069  0.39542  Biso   1.000  H
  C955     1.0000 0.21608  0.39929  0.20712  Biso   1.000  C
  C956     1.0000 0.21160  0.50671  0.17479  Biso   1.000  C
  C957     1.0000 0.24538  0.32291  0.16900  Biso   1.000  C
  C958     1.0000 0.27949  0.35772  0.11091  Biso   1.000  C
  H777     1.0000 0.30260  0.39509  0.06032  Biso   1.000  H
  C959     1.0000 0.13839  0.88512  0.10089  Biso   1.000  C
  C960     1.0000 0.10690  0.90420  0.02598  Biso   1.000  C
  C961     1.0000 0.10748  0.00742  0.98411  Biso   1.000  C
  C962     1.0000 0.14539  0.08210  0.00371  Biso   1.000  C
  H778     1.0000 0.17680  0.13618  0.02899  Biso   1.000  H
  N46      1.0000 0.97867  0.54960  0.32170  Biso   1.000  N
  H779     1.0000 0.95028  0.58611  0.36468  Biso   1.000  H
  H780     1.0000 0.95418  0.62721  0.31610  Biso   1.000  H
  C963     1.0000 0.22669  0.33590  0.20259  Biso   1.000  C
  C964     1.0000 0.19378  0.41120  0.23770  Biso   1.000  C
  C965     1.0000 0.19052  0.51823  0.20808  Biso   1.000  C
  C966     1.0000 0.21450  0.55073  0.13730  Biso   1.000  C
  H781     1.0000 0.24939  0.28030  0.16109  Biso   1.000  H
  H782     1.0000 0.28419  0.31502  0.10449  Biso   1.000  H
  C967     1.0000 0.12409  0.82711  0.10861  Biso   1.000  C
  C968     1.0000 0.15730  0.90661  0.13979  Biso   1.000  C
  C969     1.0000 0.09300  0.84662  0.03619  Biso   1.000  C
  C970     1.0000 0.09526  0.94502  0.98849  Biso   1.000  C
  H783     1.0000 0.09797  0.03921  0.96422  Biso   1.000  H
  H784     1.0000 0.13587  0.11370  0.98359  Biso   1.000  H
  C971     1.0000 0.98488  0.49972  0.35800  Biso   1.000  C
  C972     1.0000 0.96399  0.52730  0.27679  Biso   1.000  C
  H785     1.0000 0.22058  0.30331  0.22330  Biso   1.000  H
  C973     1.0000 0.18308  0.46953  0.24078  Biso   1.000  C
  H786     1.0000 0.18640  0.37761  0.25600  Biso   1.000  H
  C974     1.0000 0.17600  0.57841  0.20641  Biso   1.000  C
  C975     1.0000 0.19909  0.60661  0.13422  Biso   1.000  C
  H787     1.0000 0.22739  0.54232  0.11310  Biso   1.000  H
  C976     1.0000 0.13109  0.79112  0.15252  Biso   1.000  C
  C977     1.0000 0.10080  0.81153  0.07502  Biso   1.000  C
  C978     1.0000 0.16430  0.87232  0.18151  Biso   1.000  C
  H788     1.0000 0.16570  0.94700  0.13682  Biso   1.000  H
  H789     1.0000 0.07759  0.83321  0.01410  Biso   1.000  H
  H790     1.0000 0.07976  0.93203  0.96659  Biso   1.000  H
  C979     1.0000 0.01069  0.46301  0.34690  Biso   1.000  C
  H791     1.0000 0.96859  0.47062  0.35782  Biso   1.000  H
  H792     1.0000 0.98798  0.51852  0.39159  Biso   1.000  H
  H793     1.0000 0.94358  0.52579  0.28102  Biso   1.000  H
  H794     1.0000 0.97030  0.48380  0.27011  Biso   1.000  H
  C980     1.0000 0.96908  0.56991  0.23210  Biso   1.000  C
  H795     1.0000 0.17028  0.47841  0.26510  Biso   1.000  H
  C981     1.0000 0.15660  0.59022  0.24309  Biso   1.000  C
  C982     1.0000 0.18109  0.62130  0.17111  Biso   1.000  C
  H796     1.0000 0.20081  0.63481  0.10720  Biso   1.000  H
  C983     1.0000 0.11659  0.73462  0.16050  Biso   1.000  C
  C984     1.0000 0.15099  0.81351  0.18719  Biso   1.000  C
  H797     1.0000 0.09029  0.77430  0.08081  Biso   1.000  H
  H798     1.0000 0.17780  0.88772  0.20630  Biso   1.000  H
  N47      1.0000 0.03549  0.50109  0.36101  Biso   1.000  N
  H799     1.0000 0.01158  0.42291  0.36580  Biso   1.000  H
  H800     1.0000 0.00979  0.45291  0.31109  Biso   1.000  H
  H801     1.0000 0.95430  0.56221  0.20471  Biso   1.000  H
  H802     1.0000 0.96829  0.61493  0.24179  Biso   1.000  H
  N48      1.0000 0.99694  0.55513  0.21562  Biso   1.000  N
  C985     1.0000 0.14111  0.59329  0.27519  Biso   1.000  C
  H803     1.0000 0.17230  0.66160  0.17130  Biso   1.000  H
  C986     1.0000 0.10329  0.68720  0.16740  Biso   1.000  C
  H804     1.0000 0.15608  0.78890  0.21599  Biso   1.000  H
  C987     1.0000 0.05257  0.51630  0.32842  Biso   1.000  C
  C988     1.0000 0.01469  0.59920  0.21421  Biso   1.000  C
  C989     1.0000 0.12188  0.59022  0.31450  Biso   1.000  C
  C990     1.0000 0.08649  0.63349  0.17509  Biso   1.000  C
  C991     1.0000 0.07831  0.55102  0.34071  Biso   1.000  C
  H805     1.0000 0.04799  0.50411  0.29490  Biso   1.000  H
  H806     1.0000 0.00999  0.64020  0.22519  Biso   1.000  H
  C992     1.0000 0.04199  0.58880  0.19632  Biso   1.000  C
  C993     1.0000 0.12958  0.60893  0.36131  Biso   1.000  C
  C994     1.0000 0.09588  0.56169  0.30259  Biso   1.000  C
  C995     1.0000 0.06009  0.64053  0.19290  Biso   1.000  C
  C996     1.0000 0.09448  0.57241  0.16120  Biso   1.000  C
  C997     1.0000 0.08648  0.57133  0.38881  Biso   1.000  C
  C998     1.0000 0.05078  0.52801  0.18199  Biso   1.000  C
  C999     1.0000 0.11238  0.60203  0.40080  Biso   1.000  C
  H807     1.0000 0.14758  0.62773  0.36799  Biso   1.000  H
  H808     1.0000 0.09018  0.54960  0.26940  Biso   1.000  H
  H809     1.0000 0.05430  0.68111  0.20300  Biso   1.000  H
  C1000    1.0000 0.07820  0.52041  0.16440  Biso   1.000  C
  H810     1.0000 0.11240  0.56741  0.14881  Biso   1.000  H
  O35      1.0000 0.06970  0.55862  0.42552  Biso   1.000  O
  O36      1.0000 0.03364  0.47931  0.18522  Biso   1.000  O
  C1001    1.0000 0.12147  0.62659  0.45291  Biso   1.000  C
  C1002    1.0000 0.08749  0.45262  0.14892  Biso   1.000  C
  C1003    1.0000 0.12589  0.56953  0.48810  Biso   1.000  C
  C1004    1.0000 0.09888  0.67000  0.47062  Biso   1.000  C
  C1005    1.0000 0.14898  0.66131  0.45481  Biso   1.000  C
  C1006    1.0000 0.08759  0.41030  0.19001  Biso   1.000  C
  C1007    1.0000 0.11818  0.45560  0.13440  Biso   1.000  C
  C1008    1.0000 0.06870  0.43113  0.10259  Biso   1.000  C
  H811     1.0000 0.10827  0.54549  0.48799  Biso   1.000  H
  H812     1.0000 0.14069  0.54242  0.47689  Biso   1.000  H
  H813     1.0000 0.13138  0.58451  0.52180  Biso   1.000  H
  H814     1.0000 0.08088  0.64733  0.46939  Biso   1.000  H
  H815     1.0000 0.10438  0.68333  0.50480  Biso   1.000  H
  H816     1.0000 0.09688  0.70723  0.44909  Biso   1.000  H
  H817     1.0000 0.16358  0.63340  0.44341  Biso   1.000  H
  H818     1.0000 0.14699  0.69854  0.43320  Biso   1.000  H
  H819     1.0000 0.15448  0.67473  0.48899  Biso   1.000  H
  H820     1.0000 0.10000  0.42702  0.21781  Biso   1.000  H
  H821     1.0000 0.06850  0.40590  0.20010  Biso   1.000  H
  H822     1.0000 0.09460  0.36892  0.18039  Biso   1.000  H
  H823     1.0000 0.11919  0.48432  0.10619  Biso   1.000  H
  H824     1.0000 0.13049  0.47119  0.16269  Biso   1.000  H
  H825     1.0000 0.12429  0.41332  0.12531  Biso   1.000  H
  H826     1.0000 0.06970  0.46231  0.07602  Biso   1.000  H
  H827     1.0000 0.07529  0.39013  0.09131  Biso   1.000  H
  H828     1.0000 0.04919  0.42721  0.11098  Biso   1.000  H
