####################################################################### 
# 
# This file contains crystal structure data downloaded from the 
# Cambridge Structural Database (CSD) hosted by the Cambridge 
# Crystallographic Data Centre (CCDC).
# 
# Full information about CCDC data access policies and citation 
# guidelines are available at http://www.ccdc.cam.ac.uk/access/V1 
# 
# Audit and citation data items may have been added by the CCDC. 
# Please retain this information to preserve the provenance of 
# this file and to allow appropriate attribution of the data. 
# 
#######################################################################

data_1
_audit_block_doi                 10.5517/ccsqsx5
_database_code_depnum_ccdc_archive 'CCDC 736898'
loop_
_citation_id
_citation_doi
_citation_year
1 10.1021/ja901731z 2009
_audit_update_record             
;
2009-06-19 deposited with the CCDC.	2019-02-14 downloaded from the CCDC.
;

_audit_creation_method           SHELXL-97
_chemical_name_systematic        
;
?
;
_chemical_name_common            none
_chemical_melting_point          'not measured'
_chemical_formula_moiety         'C204 H174 Cu12 N18 O60'
_chemical_formula_sum            'C204 H174 Cu12 N18 O60'
_chemical_formula_weight         4600.09

loop_
_atom_type_symbol
_atom_type_description
_atom_type_scat_dispersion_real
_atom_type_scat_dispersion_imag
_atom_type_scat_source
C C 0.0033 0.0016 'International Tables Vol C Tables 4.2.6.8 and 6.1.1.4'
H H 0.0000 0.0000 'International Tables Vol C Tables 4.2.6.8 and 6.1.1.4'
N N 0.0061 0.0033 'International Tables Vol C Tables 4.2.6.8 and 6.1.1.4'
O O 0.0106 0.0060 'International Tables Vol C Tables 4.2.6.8 and 6.1.1.4'
Cu Cu 0.3201 1.2651 'International Tables Vol C Tables 4.2.6.8 and 6.1.1.4'

_symmetry_cell_setting           monoclinic
_symmetry_space_group_name_H-M   'P 21/n'

loop_
_symmetry_equiv_pos_as_xyz
'x, y, z'
'-x+1/2, y+1/2, -z+1/2'
'-x, -y, -z'
'x-1/2, -y-1/2, z-1/2'

_cell_length_a                   23.2928(17)
_cell_length_b                   27.637(2)
_cell_length_c                   24.0457(16)
_cell_angle_alpha                90.00
_cell_angle_beta                 97.338(2)
_cell_angle_gamma                90.00
_cell_volume                     15352.3(19)
_cell_formula_units_Z            2
_cell_measurement_temperature    213(2)
_cell_measurement_reflns_used    8539
_cell_measurement_theta_min      2.2981
_cell_measurement_theta_max      26.4901

_exptl_crystal_description       blue-green
_exptl_crystal_colour            block
_exptl_crystal_size_max          0.36
_exptl_crystal_size_mid          0.34
_exptl_crystal_size_min          0.32
_exptl_crystal_density_meas      ?
_exptl_crystal_density_diffrn    0.995
_exptl_crystal_density_method    'not measured'
_exptl_crystal_F_000             4704
_exptl_absorpt_coefficient_mu    0.872
_exptl_absorpt_correction_type   Multi-Scan
_exptl_absorpt_correction_T_min  0.9443
_exptl_absorpt_correction_T_max  1.0000
_exptl_absorpt_process_details   SADABS

_exptl_special_details           
;
?
;

_diffrn_ambient_temperature      213(2)
_diffrn_radiation_wavelength     0.71073
_diffrn_radiation_type           MoK\a
_diffrn_radiation_source         'fine-focus sealed tube'
_diffrn_radiation_monochromator  graphite
_diffrn_measurement_device_type  'BRUKE SMART APEX'
_diffrn_measurement_method       'omega scans'
_diffrn_detector_area_resol_mean ?
_diffrn_standards_number         ?
_diffrn_standards_interval_count ?
_diffrn_standards_interval_time  ?
_diffrn_standards_decay_%        ?
_diffrn_reflns_number            76887
_diffrn_reflns_av_R_equivalents  0.0435
_diffrn_reflns_av_sigmaI/netI    0.0588
_diffrn_reflns_limit_h_min       -28
_diffrn_reflns_limit_h_max       28
_diffrn_reflns_limit_k_min       -34
_diffrn_reflns_limit_k_max       29
_diffrn_reflns_limit_l_min       -29
_diffrn_reflns_limit_l_max       18
_diffrn_reflns_theta_min         1.13
_diffrn_reflns_theta_max         26.00
_reflns_number_total             30046
_reflns_number_gt                21041
_reflns_threshold_expression     I>2sigma(I)

_computing_data_collection       'Bruker SMART'
_computing_cell_refinement       'Bruker SMART'
_computing_data_reduction        'Bruker SAINT'
_computing_structure_solution    'SHELXS-97 (Sheldrick, 1990)'
_computing_structure_refinement  'SHELXL-97 (Sheldrick, 1997)'
_computing_molecular_graphics    'Bruker SHELXTL'
_computing_publication_material  'Bruker SHELXTL'

_refine_special_details          
;
Refinement of F^2^ against ALL reflections. The weighted R-factor wR and
goodness of fit S are based on F^2^, conventional R-factors R are based
on F, with F set to zero for negative F^2^. The threshold expression of
F^2^ > 2sigma(F^2^) is used only for calculating R-factors(gt) etc. and is
not relevant to the choice of reflections for refinement. R-factors based
on F^2^ are statistically about twice as large as those based on F, and R-
factors based on ALL data will be even larger.
;

_refine_ls_structure_factor_coef Fsqd
_refine_ls_matrix_type           full
_refine_ls_weighting_scheme      calc
_refine_ls_weighting_details     
'calc w=1/[\s^2^(Fo^2^)+(0.1185P)^2^] where P=(Fo^2^+2Fc^2^)/3'
_atom_sites_solution_primary     direct
_atom_sites_solution_secondary   difmap
_atom_sites_solution_hydrogens   geom
_refine_ls_hydrogen_treatment    constr
_refine_ls_extinction_method     none
_refine_ls_extinction_coef       ?
_refine_ls_number_reflns         30046
_refine_ls_number_parameters     1319
_refine_ls_number_restraints     18
_refine_ls_R_factor_all          0.0795
_refine_ls_R_factor_gt           0.0602
_refine_ls_wR_factor_ref         0.1795
_refine_ls_wR_factor_gt          0.1674
_refine_ls_goodness_of_fit_ref   1.003
_refine_ls_restrained_S_all      1.008
_refine_ls_shift/su_max          0.001
_refine_ls_shift/su_mean         0.000

loop_
_atom_site_label
_atom_site_type_symbol
_atom_site_fract_x
_atom_site_fract_y
_atom_site_fract_z
_atom_site_U_iso_or_equiv
_atom_site_adp_type
_atom_site_occupancy
_atom_site_symmetry_multiplicity
_atom_site_calc_flag
_atom_site_refinement_flags
_atom_site_disorder_assembly
_atom_site_disorder_group
Cu1 Cu -0.082201(18) -0.329839(14) 0.573199(17) 0.02698(11) Uani 1 1 d . . .
Cu2 Cu -0.054302(18) -0.241072(14) 0.550794(17) 0.02650(11) Uani 1 1 d . . .
Cu3 Cu 0.118900(17) 0.052561(15) 0.891582(16) 0.02481(11) Uani 1 1 d . . .
Cu4 Cu 0.085493(17) 0.039329(15) 0.785088(16) 0.02510(11) Uani 1 1 d . . .
Cu5 Cu 0.388715(17) -0.097068(15) 0.446717(17) 0.02703(11) Uani 1 1 d . . .
Cu6 Cu 0.281894(17) -0.075902(16) 0.461062(17) 0.02749(11) Uani 1 1 d . . .
O1 O -0.04775(12) -0.31623(9) 0.65038(11) 0.0376(6) Uani 1 1 d . . .
O2 O -0.03022(11) -0.23769(9) 0.63284(10) 0.0352(6) Uani 1 1 d . . .
O3 O 0.08977(11) -0.01313(9) 0.90070(10) 0.0338(6) Uani 1 1 d . . .
O4 O 0.06587(11) -0.02612(9) 0.80826(9) 0.0324(6) Uani 1 1 d . . .
O5 O 0.19250(11) 0.02685(10) 0.87335(10) 0.0362(6) Uani 1 1 d . . .
O6 O 0.16442(11) 0.01812(9) 0.78032(10) 0.0342(6) Uani 1 1 d . . .
O7 O 0.30974(11) -0.06622(10) 0.54033(10) 0.0365(6) Uani 1 1 d . . .
O8 O 0.40235(11) -0.07984(10) 0.52716(10) 0.0386(6) Uani 1 1 d . . .
O9 O 0.30329(11) -0.00915(9) 0.44486(11) 0.0370(6) Uani 1 1 d . . .
O10 O 0.39124(11) -0.02904(9) 0.42407(11) 0.0374(6) Uani 1 1 d . . .
O11 O 0.27864(11) -0.14532(9) 0.47389(11) 0.0394(6) Uani 1 1 d . . .
O12 O 0.37117(11) -0.16395(9) 0.46750(11) 0.0389(6) Uani 1 1 d . . .
O13 O 0.26727(11) -0.08733(10) 0.37995(10) 0.0380(6) Uani 1 1 d . . .
O14 O 0.35688(10) -0.11159(10) 0.36905(10) 0.0350(6) Uani 1 1 d . . .
O15 O 0.02103(11) -0.26779(8) 0.54033(11) 0.0330(6) Uani 1 1 d . . .
O16 O -0.00519(11) -0.34483(9) 0.55225(11) 0.0343(6) Uani 1 1 d . . .
O17 O -0.08597(12) -0.26043(9) 0.47417(10) 0.0359(6) Uani 1 1 d . . .
O18 O -0.11584(11) -0.33489(9) 0.49479(10) 0.0370(6) Uani 1 1 d . . .
O19 O -0.01047(10) -0.06187(9) 0.19597(9) 0.0309(5) Uani 1 1 d . . .
O20 O -0.04007(11) -0.07626(9) 0.10496(10) 0.0344(6) Uani 1 1 d . . .
O21 O 0.15186(12) 0.29717(9) 0.40672(12) 0.0407(6) Uani 1 1 d . . .
O22 O 0.13185(11) 0.22280(9) 0.43394(11) 0.0391(6) Uani 1 1 d . . .
O23 O -0.11007(12) -0.10652(9) 0.22318(10) 0.0365(6) Uani 1 1 d . . .
O24 O -0.14191(12) -0.11665(9) 0.13188(10) 0.0397(6) Uani 1 1 d . . .
O25 O -0.10149(13) -0.40315(9) 0.59362(11) 0.0427(7) Uani 1 1 d . . .
H25B H -0.0966 -0.4110 0.6320 0.051 Uiso 1 1 calc R . .
O26 O -0.0363(2) -0.16904(11) 0.52228(15) 0.0843(13) Uani 1 1 d D . .
H26A H -0.0415 -0.1479 0.5524 0.101 Uiso 1 1 d R . .
O27 O 0.05141(14) 0.02317(12) 0.69930(11) 0.0517(8) Uani 1 1 d . . .
H27A H 0.0127 0.0128 0.6944 0.062 Uiso 1 1 calc R . .
O28 O 0.15565(11) 0.05894(9) 0.97831(9) 0.0324(6) Uani 1 1 d . . .
O29 O 0.48071(11) -0.11390(11) 0.44199(13) 0.0507(8) Uani 1 1 d . . .
O30 O 0.19284(13) -0.06063(16) 0.46984(15) 0.0743(11) Uani 1 1 d . . .
N1 N 0.00581(19) -0.23118(13) 0.89546(14) 0.0538(10) Uani 1 1 d . . .
H1A H 0.0033 -0.2480 0.9256 0.065 Uiso 1 1 calc R . .
N2 N 0.25904(14) -0.36567(11) 0.51820(14) 0.0413(8) Uani 1 1 d . . .
H2A H 0.2778 -0.3930 0.5211 0.050 Uiso 1 1 calc R . .
N3 N -0.19515(18) -0.32097(13) 0.23286(15) 0.0562(11) Uani 1 1 d . . .
H3B H -0.2103 -0.3449 0.2125 0.067 Uiso 1 1 calc R . .
N4 N 0.42636(13) -0.03520(12) 0.78684(12) 0.0370(7) Uani 1 1 d . . .
H4B H 0.4591 -0.0366 0.8087 0.044 Uiso 1 1 calc R . .
N5 N 0.22882(14) -0.11398(12) 0.12006(13) 0.0388(8) Uani 1 1 d . . .
H5A H 0.2465 -0.1190 0.0908 0.047 Uiso 1 1 calc R . .
N6 N 0.17687(18) 0.02946(15) 1.06529(15) 0.0558(10) Uani 1 1 d . . .
N7 N 0.5797(3) -0.1108(5) 0.4345(4) 0.284(10) Uani 1 1 d DU . .
N8 N 0.1078(4) -0.0254(4) 0.4728(4) 0.183(4) Uani 1 1 d . . .
N28 N 0.36122(19) 0.18323(15) 0.3302(2) 0.0798(16) Uani 1 1 d . . .
H28B H 0.3854 0.1964 0.3099 0.096 Uiso 1 1 calc R . .
C1 C -0.03412(16) -0.27309(13) 0.66558(15) 0.0340(8) Uani 1 1 d . . .
C2 C -0.02197(18) -0.26392(13) 0.72687(15) 0.0376(9) Uani 1 1 d . . .
C3 C -0.0300(2) -0.30130(14) 0.76445(17) 0.0456(10) Uani 1 1 d . . .
H3A H -0.0411 -0.3320 0.7501 0.055 Uiso 1 1 calc R . .
C4 C -0.0223(2) -0.29462(15) 0.82183(18) 0.0547(12) Uani 1 1 d . . .
H4A H -0.0282 -0.3199 0.8466 0.066 Uiso 1 1 calc R . .
C5 C -0.0052(2) -0.24838(14) 0.84142(17) 0.0490(11) Uani 1 1 d . . .
C6 C 0.02120(19) -0.18343(14) 0.89434(15) 0.0404(9) Uani 1 1 d . . .
C7 C 0.0367(2) -0.15156(14) 0.93908(15) 0.0432(10) Uani 1 1 d . . .
H7A H 0.0370 -0.1615 0.9765 0.052 Uiso 1 1 calc R . .
C8 C 0.05136(18) -0.10501(14) 0.92598(15) 0.0375(9) Uani 1 1 d . . .
H8A H 0.0620 -0.0830 0.9553 0.045 Uiso 1 1 calc R . .
C9 C 0.05105(15) -0.08946(13) 0.87088(14) 0.0290(7) Uani 1 1 d . . .
C10 C 0.06997(15) -0.03881(12) 0.85875(15) 0.0300(8) Uani 1 1 d . . .
C11 C 0.03488(16) -0.12062(12) 0.82649(14) 0.0310(8) Uani 1 1 d . . .
H11A H 0.0336 -0.1100 0.7892 0.037 Uiso 1 1 calc R . .
C12 C 0.02047(17) -0.16834(13) 0.83842(14) 0.0345(8) Uani 1 1 d . . .
C13 C 0.00375(19) -0.20993(13) 0.80362(15) 0.0393(9) Uani 1 1 d . . .
C14 C -0.00538(17) -0.21805(13) 0.74594(15) 0.0350(8) Uani 1 1 d . . .
H14A H -0.0004 -0.1930 0.7206 0.042 Uiso 1 1 calc R . .
C15 C 0.03063(15) -0.31266(12) 0.54336(14) 0.0290(7) Uani 1 1 d . . .
C16 C 0.09026(16) -0.32909(13) 0.53506(15) 0.0330(8) Uani 1 1 d . . .
C17 C 0.10555(17) -0.37719(14) 0.54221(17) 0.0403(9) Uani 1 1 d . . .
H17A H 0.0779 -0.3996 0.5514 0.048 Uiso 1 1 calc R . .
C18 C 0.16138(18) -0.39339(14) 0.53611(18) 0.0445(10) Uani 1 1 d . . .
H18A H 0.1710 -0.4264 0.5398 0.053 Uiso 1 1 calc R . .
C19 C 0.20140(16) -0.36011(14) 0.52468(16) 0.0357(8) Uani 1 1 d . . .
C20 C 0.28273(16) -0.32144(15) 0.50646(16) 0.0385(9) Uani 1 1 d . . .
C21 C 0.33846(18) -0.30972(16) 0.49788(19) 0.0474(10) Uani 1 1 d . . .
H21A H 0.3674 -0.3335 0.4990 0.057 Uiso 1 1 calc R . .
C22 C 0.35027(17) -0.26193(16) 0.48758(18) 0.0455(10) Uani 1 1 d . . .
H22A H 0.3878 -0.2529 0.4813 0.055 Uiso 1 1 calc R . .
C23 C 0.30666(16) -0.22621(14) 0.48630(16) 0.0355(8) Uani 1 1 d . . .
C24 C 0.32058(16) -0.17500(14) 0.47458(15) 0.0350(8) Uani 1 1 d . . .
C25 C 0.25217(16) -0.23827(14) 0.49464(15) 0.0352(8) Uani 1 1 d . . .
H25A H 0.2234 -0.2143 0.4933 0.042 Uiso 1 1 calc R . .
C26 C 0.23850(16) -0.28623(13) 0.50516(15) 0.0332(8) Uani 1 1 d . . .
C27 C 0.18695(16) -0.31044(13) 0.51713(16) 0.0336(8) Uani 1 1 d . . .
C28 C 0.13083(15) -0.29539(13) 0.52313(15) 0.0326(8) Uani 1 1 d . . .
H28A H 0.1207 -0.2625 0.5191 0.039 Uiso 1 1 calc R . .
C29 C -0.11067(16) -0.30052(13) 0.46111(15) 0.0313(8) Uani 1 1 d . . .
C30 C -0.13538(15) -0.30723(12) 0.40199(15) 0.0298(8) Uani 1 1 d . . .
C31 C -0.15860(17) -0.35224(13) 0.38346(16) 0.0366(9) Uani 1 1 d . . .
H31A H -0.1591 -0.3777 0.4093 0.044 Uiso 1 1 calc R . .
C32 C -0.18084(19) -0.35994(14) 0.32777(17) 0.0448(10) Uani 1 1 d . . .
H32A H -0.1969 -0.3900 0.3158 0.054 Uiso 1 1 calc R . .
C33 C -0.17869(18) -0.32235(14) 0.29063(17) 0.0410(9) Uani 1 1 d . . .
C34 C -0.1836(2) -0.27551(16) 0.21321(18) 0.0539(12) Uani 1 1 d . . .
C35 C -0.1916(3) -0.25814(19) 0.15834(19) 0.0781(19) Uani 1 1 d . . .
H35A H -0.2078 -0.2777 0.1284 0.094 Uiso 1 1 calc R . .
C36 C -0.1750(3) -0.21158(18) 0.14970(19) 0.0735(18) Uani 1 1 d . . .
H36A H -0.1798 -0.1992 0.1130 0.088 Uiso 1 1 calc R . .
C37 C -0.1507(2) -0.18131(15) 0.19422(16) 0.0458(11) Uani 1 1 d . . .
C38 C -0.13317(16) -0.13096(14) 0.18203(16) 0.0370(9) Uani 1 1 d . . .
C39 C -0.14330(17) -0.19910(14) 0.24842(16) 0.0388(9) Uani 1 1 d . . .
H39A H -0.1270 -0.1795 0.2783 0.047 Uiso 1 1 calc R . .
C40 C -0.16014(19) -0.24616(14) 0.25841(16) 0.0409(9) Uani 1 1 d . . .
C41 C -0.15556(17) -0.27616(13) 0.30828(16) 0.0362(9) Uani 1 1 d . . .
C42 C -0.13433(16) -0.26926(13) 0.36363(16) 0.0343(8) Uani 1 1 d . . .
H42A H -0.1191 -0.2390 0.3758 0.041 Uiso 1 1 calc R . .
C43 C 0.20182(16) 0.01612(13) 0.82373(15) 0.0313(8) Uani 1 1 d . . .
C44 C 0.26160(15) 0.00073(13) 0.81600(14) 0.0296(8) Uani 1 1 d . . .
C45 C 0.30529(17) 0.00045(14) 0.86213(15) 0.0362(9) Uani 1 1 d . . .
H45A H 0.2956 0.0088 0.8977 0.043 Uiso 1 1 calc R . .
C46 C 0.36199(17) -0.01162(15) 0.85700(15) 0.0379(9) Uani 1 1 d . . .
H46A H 0.3907 -0.0120 0.8882 0.045 Uiso 1 1 calc R . .
C47 C 0.37464(16) -0.02317(13) 0.80333(15) 0.0332(8) Uani 1 1 d . . .
C48 C 0.41886(16) -0.04483(14) 0.73009(15) 0.0344(8) Uani 1 1 d . . .
C49 C 0.45937(17) -0.05745(15) 0.69555(16) 0.0396(9) Uani 1 1 d . . .
H49A H 0.4986 -0.0612 0.7100 0.048 Uiso 1 1 calc R . .
C50 C 0.44089(16) -0.06451(15) 0.63917(16) 0.0386(9) Uani 1 1 d . . .
H50A H 0.4681 -0.0724 0.6149 0.046 Uiso 1 1 calc R . .
C51 C 0.38192(15) -0.06012(14) 0.61759(15) 0.0319(8) Uani 1 1 d . . .
C52 C 0.36293(16) -0.06901(14) 0.55702(15) 0.0333(8) Uani 1 1 d . . .
C53 C 0.34203(15) -0.04717(12) 0.65303(14) 0.0283(7) Uani 1 1 d . . .
H53A H 0.3027 -0.0439 0.6390 0.034 Uiso 1 1 calc R . .
C54 C 0.36055(15) -0.03903(13) 0.70930(14) 0.0287(7) Uani 1 1 d . . .
C55 C 0.33117(15) -0.02445(13) 0.75703(14) 0.0296(8) Uani 1 1 d . . .
C56 C 0.27455(15) -0.01224(13) 0.76345(14) 0.0286(7) Uani 1 1 d . . .
H56A H 0.2454 -0.0128 0.7325 0.034 Uiso 1 1 calc R . .
C57 C 0.30510(15) -0.10211(13) 0.35043(15) 0.0301(8) Uani 1 1 d . . .
C58 C 0.28624(15) -0.10754(13) 0.28997(14) 0.0284(7) Uani 1 1 d . . .
C59 C 0.32735(15) -0.11892(13) 0.25322(15) 0.0322(8) Uani 1 1 d . . .
H59A H 0.3660 -0.1247 0.2683 0.039 Uiso 1 1 calc R . .
C60 C 0.31198(16) -0.12180(14) 0.19576(16) 0.0360(9) Uani 1 1 d . . .
H60A H 0.3395 -0.1295 0.1718 0.043 Uiso 1 1 calc R . .
C61 C 0.25510(16) -0.11307(13) 0.17494(15) 0.0328(8) Uani 1 1 d . . .
C62 C 0.17050(16) -0.10578(14) 0.11872(15) 0.0355(8) Uani 1 1 d . . .
C63 C 0.12690(18) -0.10423(17) 0.07359(16) 0.0444(10) Uani 1 1 d . . .
H63A H 0.1350 -0.1102 0.0369 0.053 Uiso 1 1 calc R . .
C64 C 0.07332(18) -0.09405(16) 0.08370(15) 0.0423(10) Uani 1 1 d . . .
H64A H 0.0438 -0.0920 0.0532 0.051 Uiso 1 1 calc R . .
C65 C 0.05883(15) -0.08615(13) 0.13837(14) 0.0309(8) Uani 1 1 d . . .
C66 C -0.00173(15) -0.07425(12) 0.14683(14) 0.0292(8) Uani 1 1 d . . .
C67 C 0.10154(15) -0.08884(13) 0.18414(14) 0.0288(7) Uani 1 1 d . . .
H67A H 0.0928 -0.0840 0.2208 0.035 Uiso 1 1 calc R . .
C68 C 0.15824(15) -0.09906(13) 0.17388(14) 0.0286(7) Uani 1 1 d . . .
C69 C 0.21280(15) -0.10379(12) 0.21105(14) 0.0278(7) Uani 1 1 d . . .
C70 C 0.22916(15) -0.10031(12) 0.26762(14) 0.0280(7) Uani 1 1 d . . .
H70A H 0.2014 -0.0929 0.2915 0.034 Uiso 1 1 calc R . .
C71 C 0.34980(16) 0.00002(14) 0.42655(15) 0.0326(8) Uani 1 1 d . . .
C72 C 0.35663(16) 0.04926(14) 0.40392(16) 0.0345(8) Uani 1 1 d . . .
C73 C 0.40398(18) 0.06004(15) 0.37438(19) 0.0449(10) Uani 1 1 d . . .
H73A H 0.4326 0.0364 0.3722 0.054 Uiso 1 1 calc R . .
C74 C 0.40925(19) 0.10366(17) 0.3490(2) 0.0560(13) Uani 1 1 d . . .
H74A H 0.4408 0.1101 0.3294 0.067 Uiso 1 1 calc R . .
C75 C 0.3670(2) 0.13813(17) 0.3530(2) 0.0577(13) Uani 1 1 d . . .
C76 C 0.3121(2) 0.20482(18) 0.3438(3) 0.0699(16) Uani 1 1 d . . .
C77 C 0.2915(3) 0.2515(2) 0.3318(3) 0.108(3) Uani 1 1 d . . .
H77A H 0.3103 0.2728 0.3097 0.130 Uiso 1 1 calc R . .
C78 C 0.2420(2) 0.26480(18) 0.3540(3) 0.0739(17) Uani 1 1 d . . .
H78A H 0.2263 0.2957 0.3459 0.089 Uiso 1 1 calc R . .
C79 C 0.21477(18) 0.23418(15) 0.3878(2) 0.0463(10) Uani 1 1 d . . .
C80 C 0.16172(16) 0.25269(13) 0.41191(17) 0.0359(9) Uani 1 1 d . . .
C81 C 0.23641(17) 0.18797(14) 0.40135(17) 0.0389(9) Uani 1 1 d . . .
H81A H 0.2180 0.1674 0.4247 0.047 Uiso 1 1 calc R . .
C82 C 0.28548(19) 0.17334(15) 0.3795(2) 0.0479(11) Uani 1 1 d . . .
C83 C 0.31960(16) 0.13031(15) 0.38379(18) 0.0414(10) Uani 1 1 d . . .
C84 C 0.31479(15) 0.08518(13) 0.40901(15) 0.0326(8) Uani 1 1 d . . .
H84A H 0.2837 0.0788 0.4293 0.039 Uiso 1 1 calc R . .
C85 C -0.1204(5) -0.4404(3) 0.5571(3) 0.152(5) Uani 1 1 d . . .
H85A H -0.1518 -0.4283 0.5297 0.182 Uiso 1 1 calc R . .
H85B H -0.1364 -0.4662 0.5785 0.182 Uiso 1 1 calc R . .
C86 C -0.0767(7) -0.4606(4) 0.5276(5) 0.230(8) Uani 1 1 d . . .
H86A H -0.0934 -0.4860 0.5028 0.345 Uiso 1 1 calc R . .
H86B H -0.0461 -0.4741 0.5543 0.345 Uiso 1 1 calc R . .
H86C H -0.0609 -0.4355 0.5058 0.345 Uiso 1 1 calc R . .
C87 C -0.0354(13) -0.1400(19) 0.4841(15) 0.75(5) Uani 1 1 d D . .
H87A H -0.0201 -0.1569 0.4533 0.902 Uiso 1 1 calc R . .
H87B H -0.0073 -0.1148 0.4973 0.902 Uiso 1 1 calc R . .
C88 C -0.091(2) -0.115(2) 0.460(2) 0.84(5) Uiso 1 1 d D . .
H88A H -0.0825 -0.0895 0.4338 1.266 Uiso 1 1 calc R . .
H88B H -0.1098 -0.1004 0.4896 1.266 Uiso 1 1 calc R . .
H88C H -0.1174 -0.1381 0.4396 1.266 Uiso 1 1 calc R . .
C89 C 0.0779(3) 0.0502(3) 1.0324(3) 0.115(3) Uani 1 1 d . . .
H89A H 0.0555 0.0623 0.9985 0.172 Uiso 1 1 calc R . .
H89B H 0.0747 0.0726 1.0630 0.172 Uiso 1 1 calc R . .
H89C H 0.0632 0.0188 1.0417 0.172 Uiso 1 1 calc R . .
C90 C 0.14056(18) 0.04563(15) 1.02330(16) 0.0413(9) Uani 1 1 d . . .
C91 C 0.1629(3) 0.0210(2) 1.12133(19) 0.0770(18) Uani 1 1 d . . .
H91A H 0.1219 0.0264 1.1222 0.115 Uiso 1 1 calc R . .
H91B H 0.1850 0.0430 1.1472 0.115 Uiso 1 1 calc R . .
H91C H 0.1725 -0.0121 1.1322 0.115 Uiso 1 1 calc R . .
C92 C 0.2364(3) 0.0233(3) 1.0574(3) 0.111(3) Uani 1 1 d . . .
H92A H 0.2410 0.0299 1.0185 0.166 Uiso 1 1 calc R . .
H92B H 0.2482 -0.0097 1.0666 0.166 Uiso 1 1 calc R . .
H92C H 0.2602 0.0455 1.0815 0.166 Uiso 1 1 calc R . .
C93 C 0.0735(9) 0.0251(8) 0.6562(5) 0.36(2) Uani 1 1 d . . .
H93A H 0.0421 0.0239 0.6249 0.437 Uiso 1 1 calc R . .
H93B H 0.0964 -0.0044 0.6541 0.437 Uiso 1 1 calc R . .
C94 C 0.1138(10) 0.0696(13) 0.6454(8) 0.48(3) Uani 1 1 d . . .
H94A H 0.1286 0.0652 0.6098 0.717 Uiso 1 1 calc R . .
H94B H 0.1459 0.0713 0.6753 0.717 Uiso 1 1 calc R . .
H94C H 0.0915 0.0993 0.6444 0.717 Uiso 1 1 calc R . .
C95 C 0.5240(3) -0.0874(3) 0.4543(5) 0.154(5) Uani 1 1 d D . .
C96 C 0.5283(5) -0.0409(4) 0.4599(4) 0.163(4) Uani 1 1 d D . .
H96A H 0.4940 -0.0283 0.4739 0.244 Uiso 1 1 calc R . .
H96B H 0.5320 -0.0263 0.4238 0.244 Uiso 1 1 calc R . .
H96C H 0.5622 -0.0331 0.4862 0.244 Uiso 1 1 calc R . .
C97 C 0.6292(5) -0.0750(5) 0.4406(5) 0.199(6) Uani 1 1 d D . .
H97A H 0.6140 -0.0424 0.4367 0.299 Uiso 1 1 calc R . .
H97B H 0.6540 -0.0811 0.4118 0.299 Uiso 1 1 calc R . .
H97C H 0.6515 -0.0787 0.4773 0.299 Uiso 1 1 calc R . .
C98 C 0.5900(12) -0.1704(7) 0.4235(13) 0.58(3) Uani 1 1 d DU . .
H98A H 0.6266 -0.1750 0.4089 0.875 Uiso 1 1 calc R . .
H98B H 0.5587 -0.1826 0.3967 0.875 Uiso 1 1 calc R . .
H98C H 0.5906 -0.1878 0.4586 0.875 Uiso 1 1 calc R . .
C99 C 0.1561(3) -0.0331(3) 0.4476(3) 0.099(2) Uani 1 1 d . . .
C100 C 0.1630(4) -0.0039(4) 0.3969(4) 0.153(4) Uani 1 1 d . . .
H10A H 0.1990 -0.0125 0.3832 0.229 Uiso 1 1 calc R . .
H10B H 0.1636 0.0302 0.4065 0.229 Uiso 1 1 calc R . .
H10C H 0.1308 -0.0103 0.3681 0.229 Uiso 1 1 calc R . .
C101 C 0.0648(6) 0.0160(6) 0.4572(7) 0.252(8) Uani 1 1 d . . .
H10D H 0.0726 0.0307 0.4223 0.378 Uiso 1 1 calc R . .
H10E H 0.0689 0.0402 0.4867 0.378 Uiso 1 1 calc R . .
H10F H 0.0256 0.0033 0.4527 0.378 Uiso 1 1 calc R . .
C102 C 0.1017(5) -0.0529(5) 0.5270(5) 0.194(6) Uani 1 1 d . . .
H10G H 0.1305 -0.0783 0.5323 0.292 Uiso 1 1 calc R . .
H10H H 0.0633 -0.0670 0.5246 0.292 Uiso 1 1 calc R . .
H10I H 0.1074 -0.0307 0.5585 0.292 Uiso 1 1 calc R . .

loop_
_atom_site_aniso_label
_atom_site_aniso_U_11
_atom_site_aniso_U_22
_atom_site_aniso_U_33
_atom_site_aniso_U_23
_atom_site_aniso_U_13
_atom_site_aniso_U_12
Cu1 0.0344(2) 0.0198(2) 0.0280(2) 0.00043(16) 0.00879(18) -0.00036(16)
Cu2 0.0332(2) 0.0191(2) 0.0286(2) 0.00043(16) 0.00942(18) 0.00020(16)
Cu3 0.0276(2) 0.0302(2) 0.0166(2) -0.00117(16) 0.00252(16) -0.00165(17)
Cu4 0.0280(2) 0.0309(2) 0.0163(2) -0.00030(16) 0.00281(16) -0.00224(17)
Cu5 0.0211(2) 0.0356(2) 0.0250(2) -0.00160(17) 0.00520(16) 0.00676(17)
Cu6 0.0211(2) 0.0378(2) 0.0243(2) -0.00123(17) 0.00576(16) 0.00635(17)
O1 0.0509(16) 0.0256(13) 0.0356(14) -0.0021(11) 0.0025(12) 0.0004(12)
O2 0.0481(16) 0.0294(13) 0.0288(13) -0.0013(11) 0.0080(11) -0.0068(11)
O3 0.0460(15) 0.0319(13) 0.0231(13) -0.0062(10) 0.0030(11) -0.0069(11)
O4 0.0446(15) 0.0330(13) 0.0188(12) 0.0000(10) 0.0011(10) -0.0057(11)
O5 0.0393(15) 0.0511(16) 0.0196(12) -0.0052(11) 0.0095(11) 0.0057(12)
O6 0.0332(14) 0.0463(15) 0.0233(13) -0.0080(11) 0.0048(11) 0.0033(11)
O7 0.0279(14) 0.0546(17) 0.0271(13) -0.0048(11) 0.0044(11) 0.0090(12)
O8 0.0316(14) 0.0585(17) 0.0272(13) -0.0079(12) 0.0098(11) 0.0103(12)
O9 0.0352(15) 0.0345(14) 0.0441(16) 0.0032(11) 0.0150(12) 0.0092(11)
O10 0.0333(14) 0.0371(14) 0.0437(16) 0.0025(12) 0.0124(12) 0.0103(11)
O11 0.0326(14) 0.0384(15) 0.0483(16) 0.0027(12) 0.0087(12) 0.0009(12)
O12 0.0327(14) 0.0414(15) 0.0441(16) 0.0066(12) 0.0112(12) 0.0030(12)
O13 0.0269(13) 0.0622(18) 0.0251(13) -0.0058(12) 0.0048(11) 0.0050(12)
O14 0.0238(13) 0.0522(16) 0.0288(13) -0.0049(11) 0.0028(10) 0.0069(11)
O15 0.0338(14) 0.0251(13) 0.0422(15) 0.0011(11) 0.0133(11) 0.0016(10)
O16 0.0355(14) 0.0272(13) 0.0436(15) -0.0001(11) 0.0180(12) -0.0011(11)
O17 0.0489(16) 0.0286(13) 0.0295(14) 0.0028(10) 0.0025(11) -0.0020(12)
O18 0.0462(16) 0.0334(14) 0.0314(14) 0.0062(11) 0.0050(12) -0.0055(12)
O19 0.0295(13) 0.0421(14) 0.0211(12) -0.0028(10) 0.0038(10) 0.0033(11)
O20 0.0366(14) 0.0414(15) 0.0234(13) -0.0065(11) -0.0032(11) 0.0078(11)
O21 0.0425(16) 0.0310(14) 0.0515(17) 0.0030(12) 0.0176(13) 0.0102(12)
O22 0.0403(15) 0.0292(13) 0.0506(17) -0.0001(12) 0.0169(13) 0.0088(11)
O23 0.0456(16) 0.0330(14) 0.0298(14) 0.0064(11) 0.0009(11) -0.0099(12)
O24 0.0488(16) 0.0392(15) 0.0292(14) 0.0113(11) -0.0020(12) -0.0086(12)
O25 0.0659(19) 0.0250(13) 0.0396(16) 0.0024(11) 0.0162(14) -0.0110(13)
O26 0.167(4) 0.0344(17) 0.058(2) 0.0009(15) 0.039(2) -0.033(2)
O27 0.0606(19) 0.077(2) 0.0153(13) -0.0041(13) -0.0027(12) -0.0097(16)
O28 0.0366(14) 0.0428(14) 0.0180(12) -0.0035(10) 0.0036(10) -0.0103(11)
O29 0.0251(14) 0.0612(19) 0.066(2) -0.0206(15) 0.0054(13) 0.0107(13)
O30 0.0318(17) 0.123(3) 0.072(2) 0.031(2) 0.0206(16) 0.0314(19)
N1 0.096(3) 0.0395(19) 0.0260(18) 0.0053(14) 0.0094(18) -0.0168(19)
N2 0.0408(19) 0.0308(17) 0.054(2) 0.0062(15) 0.0117(16) 0.0138(14)
N3 0.082(3) 0.0363(19) 0.043(2) 0.0050(15) -0.0175(19) -0.0259(19)
N4 0.0287(16) 0.054(2) 0.0274(16) -0.0094(14) 0.0005(13) 0.0032(14)
N5 0.0378(18) 0.055(2) 0.0238(16) -0.0079(14) 0.0054(13) 0.0090(15)
N6 0.064(3) 0.066(3) 0.035(2) 0.0105(18) -0.0016(18) -0.008(2)
N7 0.039(4) 0.61(3) 0.195(9) 0.176(13) -0.025(5) -0.098(8)
N8 0.119(6) 0.209(9) 0.234(10) 0.094(8) 0.076(7) 0.101(6)
N28 0.073(3) 0.048(2) 0.134(4) 0.031(3) 0.073(3) 0.018(2)
C1 0.038(2) 0.0309(19) 0.034(2) -0.0113(16) 0.0080(16) 0.0079(16)
C2 0.055(2) 0.0304(19) 0.029(2) 0.0009(15) 0.0097(17) -0.0003(17)
C3 0.071(3) 0.028(2) 0.038(2) -0.0043(16) 0.010(2) -0.0114(19)
C4 0.096(4) 0.032(2) 0.035(2) 0.0031(18) 0.007(2) -0.011(2)
C5 0.086(3) 0.028(2) 0.034(2) 0.0000(16) 0.011(2) -0.004(2)
C6 0.063(3) 0.034(2) 0.0243(19) 0.0005(15) 0.0062(18) -0.0055(19)
C7 0.072(3) 0.036(2) 0.0210(19) -0.0006(15) 0.0059(18) -0.006(2)
C8 0.053(2) 0.035(2) 0.0243(19) -0.0051(15) 0.0040(17) -0.0046(17)
C9 0.0328(19) 0.0299(18) 0.0243(18) -0.0036(14) 0.0035(14) -0.0009(15)
C10 0.0323(19) 0.0276(18) 0.031(2) -0.0055(15) 0.0071(15) 0.0011(15)
C11 0.043(2) 0.0290(18) 0.0209(17) -0.0015(14) 0.0028(15) -0.0038(15)
C12 0.051(2) 0.0290(18) 0.0227(18) -0.0025(14) 0.0033(16) -0.0056(16)
C13 0.068(3) 0.0285(19) 0.0221(18) -0.0012(15) 0.0061(17) -0.0062(18)
C14 0.054(2) 0.0254(18) 0.0260(19) -0.0006(14) 0.0066(17) -0.0034(16)
C15 0.0322(19) 0.0293(18) 0.0257(18) 0.0002(14) 0.0043(15) -0.0003(15)
C16 0.036(2) 0.0321(19) 0.0320(19) -0.0005(15) 0.0067(16) 0.0026(16)
C17 0.040(2) 0.034(2) 0.049(2) 0.0092(18) 0.0153(19) 0.0009(17)
C18 0.049(2) 0.032(2) 0.053(3) 0.0115(18) 0.008(2) 0.0122(18)
C19 0.035(2) 0.037(2) 0.037(2) 0.0076(16) 0.0076(16) 0.0086(16)
C20 0.032(2) 0.044(2) 0.040(2) 0.0053(17) 0.0064(17) 0.0080(17)
C21 0.034(2) 0.045(2) 0.064(3) 0.001(2) 0.009(2) 0.0121(18)
C22 0.031(2) 0.050(2) 0.058(3) 0.002(2) 0.0141(19) 0.0023(18)
C23 0.035(2) 0.036(2) 0.036(2) 0.0012(16) 0.0059(16) 0.0035(16)
C24 0.036(2) 0.040(2) 0.0295(19) -0.0012(16) 0.0052(16) -0.0024(17)
C25 0.032(2) 0.037(2) 0.037(2) -0.0033(16) 0.0026(16) 0.0061(16)
C26 0.034(2) 0.035(2) 0.0310(19) 0.0004(15) 0.0038(15) 0.0055(16)
C27 0.036(2) 0.0274(18) 0.037(2) 0.0001(15) 0.0055(16) 0.0081(15)
C28 0.0326(19) 0.0294(18) 0.037(2) 0.0047(15) 0.0071(16) 0.0044(15)
C29 0.0333(19) 0.0303(19) 0.0322(19) 0.0047(15) 0.0115(15) 0.0031(15)
C30 0.0325(19) 0.0251(17) 0.0326(19) 0.0016(14) 0.0078(15) -0.0022(14)
C31 0.042(2) 0.0255(18) 0.041(2) 0.0093(16) 0.0021(17) -0.0032(16)
C32 0.054(3) 0.032(2) 0.046(2) 0.0036(17) -0.0068(19) -0.0156(18)
C33 0.045(2) 0.036(2) 0.040(2) 0.0073(17) -0.0052(18) -0.0119(17)
C34 0.069(3) 0.045(2) 0.042(2) 0.0146(19) -0.013(2) -0.026(2)
C35 0.127(5) 0.063(3) 0.034(3) 0.011(2) -0.027(3) -0.051(3)
C36 0.113(5) 0.059(3) 0.038(3) 0.019(2) -0.032(3) -0.039(3)
C37 0.061(3) 0.039(2) 0.033(2) 0.0129(17) -0.0091(19) -0.018(2)
C38 0.032(2) 0.042(2) 0.035(2) 0.0072(17) -0.0034(16) -0.0078(17)
C39 0.046(2) 0.035(2) 0.033(2) 0.0026(16) -0.0045(17) -0.0096(17)
C40 0.054(3) 0.034(2) 0.032(2) 0.0061(16) -0.0056(18) -0.0106(18)
C41 0.042(2) 0.0298(19) 0.036(2) 0.0044(16) 0.0022(17) -0.0101(16)
C42 0.040(2) 0.0265(18) 0.037(2) 0.0031(15) 0.0057(17) -0.0072(15)
C43 0.036(2) 0.0295(18) 0.0309(19) -0.0044(15) 0.0132(16) -0.0033(15)
C44 0.0282(18) 0.0349(19) 0.0269(18) -0.0020(15) 0.0083(14) -0.0005(15)
C45 0.039(2) 0.048(2) 0.0232(18) -0.0123(16) 0.0067(16) -0.0035(17)
C46 0.034(2) 0.052(2) 0.0267(19) -0.0109(17) 0.0008(16) 0.0023(18)
C47 0.034(2) 0.038(2) 0.0262(18) -0.0043(15) -0.0016(15) -0.0046(16)
C48 0.031(2) 0.043(2) 0.031(2) -0.0007(16) 0.0077(16) -0.0002(16)
C49 0.029(2) 0.052(2) 0.038(2) -0.0097(18) 0.0037(16) 0.0007(17)
C50 0.0270(19) 0.058(3) 0.032(2) -0.0075(18) 0.0093(16) 0.0033(17)
C51 0.0242(18) 0.046(2) 0.0260(18) 0.0006(16) 0.0060(14) 0.0029(15)
C52 0.034(2) 0.042(2) 0.0254(18) -0.0028(15) 0.0087(16) 0.0039(16)
C53 0.0256(18) 0.0352(19) 0.0253(18) -0.0039(14) 0.0075(14) 0.0037(14)
C54 0.0267(18) 0.0328(18) 0.0276(18) 0.0005(14) 0.0074(14) -0.0049(14)
C55 0.0277(18) 0.0338(19) 0.0276(18) -0.0040(15) 0.0050(14) -0.0026(15)
C56 0.0274(18) 0.0354(19) 0.0236(17) 0.0007(14) 0.0057(14) 0.0009(15)
C57 0.0255(18) 0.0335(19) 0.0312(19) 0.0027(15) 0.0029(15) -0.0013(14)
C58 0.0244(17) 0.0341(19) 0.0277(18) -0.0039(14) 0.0070(14) 0.0003(14)
C59 0.0211(17) 0.045(2) 0.0308(19) -0.0075(16) 0.0035(14) 0.0033(15)
C60 0.033(2) 0.039(2) 0.038(2) -0.0089(16) 0.0116(16) 0.0070(16)
C61 0.035(2) 0.036(2) 0.0272(19) -0.0089(15) 0.0023(15) -0.0001(16)
C62 0.037(2) 0.047(2) 0.0242(18) -0.0014(16) 0.0073(15) 0.0089(17)
C63 0.043(2) 0.071(3) 0.0194(18) -0.0160(18) 0.0044(16) 0.013(2)
C64 0.042(2) 0.060(3) 0.0227(19) -0.0061(17) -0.0044(16) 0.007(2)
C65 0.0308(19) 0.038(2) 0.0235(18) -0.0060(15) 0.0007(14) 0.0037(15)
C66 0.0339(19) 0.0263(17) 0.0274(19) -0.0010(14) 0.0043(15) 0.0007(15)
C67 0.0306(18) 0.0350(19) 0.0209(17) -0.0022(14) 0.0032(14) 0.0048(15)
C68 0.0272(18) 0.0345(19) 0.0237(17) -0.0032(14) 0.0022(14) 0.0046(14)
C69 0.0283(18) 0.0285(17) 0.0261(18) -0.0074(14) 0.0021(14) 0.0030(14)
C70 0.0271(18) 0.0317(18) 0.0258(18) -0.0033(14) 0.0063(14) 0.0018(14)
C71 0.031(2) 0.041(2) 0.0256(18) -0.0019(15) 0.0040(15) 0.0062(16)
C72 0.0305(19) 0.038(2) 0.036(2) -0.0005(16) 0.0074(16) 0.0021(16)
C73 0.036(2) 0.044(2) 0.058(3) 0.001(2) 0.016(2) 0.0122(18)
C74 0.042(2) 0.054(3) 0.079(3) 0.015(2) 0.037(2) 0.012(2)
C75 0.054(3) 0.046(3) 0.079(3) 0.021(2) 0.031(3) 0.012(2)
C76 0.063(3) 0.047(3) 0.111(5) 0.021(3) 0.055(3) 0.014(2)
C77 0.091(4) 0.061(4) 0.194(8) 0.061(4) 0.105(5) 0.037(3)
C78 0.074(4) 0.042(3) 0.117(5) 0.024(3) 0.052(3) 0.023(2)
C79 0.039(2) 0.040(2) 0.063(3) 0.007(2) 0.021(2) 0.0071(18)
C80 0.034(2) 0.029(2) 0.045(2) 0.0019(16) 0.0096(17) 0.0084(16)
C81 0.037(2) 0.0312(19) 0.052(2) 0.0038(17) 0.0167(18) 0.0015(16)
C82 0.042(2) 0.040(2) 0.065(3) 0.005(2) 0.023(2) 0.0040(18)
C83 0.028(2) 0.042(2) 0.058(3) 0.0037(19) 0.0204(18) 0.0083(17)
C84 0.0295(19) 0.0348(19) 0.037(2) -0.0014(16) 0.0177(16) 0.0054(15)
C85 0.265(12) 0.078(5) 0.096(6) 0.038(4) -0.043(7) -0.090(7)
C86 0.41(2) 0.135(9) 0.160(10) -0.076(8) 0.096(12) 0.096(11)
C87 0.58(6) 1.23(12) 0.43(5) 0.59(7) 0.01(4) -0.03(7)
C89 0.057(4) 0.217(9) 0.075(4) 0.066(5) 0.029(3) 0.012(4)
C90 0.047(2) 0.046(2) 0.030(2) -0.0007(17) 0.0003(18) -0.0114(19)
C91 0.107(5) 0.091(4) 0.031(3) 0.023(3) 0.005(3) -0.028(3)
C92 0.052(4) 0.159(7) 0.117(6) 0.076(5) -0.007(3) 0.017(4)
C93 0.46(3) 0.55(4) 0.070(7) 0.009(11) -0.007(11) -0.39(3)
C94 0.29(3) 0.93(7) 0.195(19) -0.13(3) -0.059(17) 0.33(4)
C95 0.041(4) 0.072(5) 0.335(15) 0.000(7) -0.026(6) -0.006(3)
C96 0.160(10) 0.164(10) 0.142(8) 0.018(7) -0.066(7) -0.062(8)
C97 0.146(10) 0.299(18) 0.160(11) -0.024(10) 0.043(8) 0.017(11)
C98 0.60(5) 0.28(2) 0.87(6) -0.40(3) 0.14(4) 0.13(2)
C99 0.057(4) 0.112(6) 0.128(6) 0.035(5) 0.014(4) 0.016(4)
C100 0.094(6) 0.243(12) 0.130(7) 0.060(7) 0.048(5) 0.077(7)
C101 0.142(11) 0.265(19) 0.35(2) 0.086(16) 0.032(12) 0.028(11)
C102 0.157(10) 0.254(15) 0.191(12) 0.083(11) 0.095(9) 0.039(9)

_geom_special_details            
;
All esds (except the esd in the dihedral angle between two l.s. planes)
are estimated using the full covariance matrix. The cell esds are taken
into account individually in the estimation of esds in distances, angles
and torsion angles; correlations between esds in cell parameters are only
used when they are defined by crystal symmetry. An approximate (isotropic)
treatment of cell esds is used for estimating esds involving l.s. planes.
;

loop_
_geom_bond_atom_site_label_1
_geom_bond_atom_site_label_2
_geom_bond_distance
_geom_bond_site_symmetry_2
_geom_bond_publ_flag
Cu1 O18 1.952(3) . ?
Cu1 O1 1.962(3) . ?
Cu1 O16 1.968(2) . ?
Cu1 O21 1.970(2) 3_556 ?
Cu1 O25 2.146(2) . ?
Cu1 Cu2 2.6116(6) . ?
Cu2 O15 1.949(2) . ?
Cu2 O22 1.955(2) 3_556 ?
Cu2 O17 1.969(2) . ?
Cu2 O2 1.983(2) . ?
Cu2 O26 2.164(3) . ?
Cu3 O24 1.955(3) 3_556 ?
Cu3 O5 1.957(2) . ?
Cu3 O3 1.960(2) . ?
Cu3 O20 1.961(2) 3_556 ?
Cu3 O28 2.158(2) . ?
Cu3 Cu4 2.6053(6) . ?
Cu4 O6 1.947(2) . ?
Cu4 O23 1.961(2) 3_556 ?
Cu4 O19 1.963(2) 3_556 ?
Cu4 O4 1.964(2) . ?
Cu4 O27 2.160(3) . ?
Cu5 O10 1.960(3) . ?
Cu5 O14 1.961(2) . ?
Cu5 O12 1.971(3) . ?
Cu5 O8 1.978(2) . ?
Cu5 O29 2.210(3) . ?
Cu5 Cu6 2.6213(6) . ?
Cu6 O11 1.946(3) . ?
Cu6 O7 1.952(2) . ?
Cu6 O13 1.962(2) . ?
Cu6 O9 1.963(3) . ?
Cu6 O30 2.154(3) . ?
O1 C1 1.275(4) . ?
O2 C1 1.266(4) . ?
O3 C10 1.271(4) . ?
O4 C10 1.256(4) . ?
O5 C43 1.275(4) . ?
O6 C43 1.272(4) . ?
O7 C52 1.255(4) . ?
O8 C52 1.272(4) . ?
O9 C71 1.246(4) . ?
O10 C71 1.263(4) . ?
O11 C24 1.274(4) . ?
O12 C24 1.250(4) . ?
O13 C57 1.268(4) . ?
O14 C57 1.259(4) . ?
O15 C15 1.260(4) . ?
O16 C15 1.256(4) . ?
O17 C29 1.269(4) . ?
O18 C29 1.264(4) . ?
O19 C66 1.271(4) . ?
O19 Cu4 1.963(2) 3_556 ?
O20 C66 1.259(4) . ?
O20 Cu3 1.961(2) 3_556 ?
O21 C80 1.254(4) . ?
O21 Cu1 1.970(2) 3_556 ?
O22 C80 1.241(5) . ?
O22 Cu2 1.955(2) 3_556 ?
O23 C38 1.260(4) . ?
O23 Cu4 1.961(2) 3_556 ?
O24 C38 1.261(4) . ?
O24 Cu3 1.955(3) 3_556 ?
O25 C85 1.389(8) . ?
O25 H25B 0.9400 . ?
O26 C87 1.22(2) . ?
O26 H26A 0.9499 . ?
O27 C93 1.216(15) . ?
O27 H27A 0.9400 . ?
O28 C90 1.236(4) . ?
O29 C95 1.250(7) . ?
O30 C99 1.217(7) . ?
N1 C6 1.369(5) . ?
N1 C5 1.377(5) . ?
N1 H1A 0.8700 . ?
N2 C19 1.380(5) . ?
N2 C20 1.385(5) . ?
N2 H2A 0.8700 . ?
N3 C34 1.381(5) . ?
N3 C33 1.394(5) . ?
N3 H3B 0.8700 . ?
N4 C47 1.357(5) . ?
N4 C48 1.380(5) . ?
N4 H4B 0.8700 . ?
N5 C62 1.374(5) . ?
N5 C61 1.382(5) . ?
N5 H5A 0.8700 . ?
N6 C90 1.310(5) . ?
N6 C92 1.433(7) . ?
N6 C91 1.445(6) . ?
N7 C97 1.512(12) . ?
N7 C95 1.577(12) . ?
N7 C98 1.690(15) . ?
N8 C99 1.360(9) . ?
N8 C102 1.532(12) . ?
N8 C101 1.536(14) . ?
N28 C75 1.361(6) . ?
N28 C76 1.366(6) . ?
N28 H28B 0.8700 . ?
C1 C2 1.487(5) . ?
C2 C14 1.386(5) . ?
C2 C3 1.401(5) . ?
C3 C4 1.381(6) . ?
C3 H3A 0.9400 . ?
C4 C5 1.402(6) . ?
C4 H4A 0.9400 . ?
C5 C13 1.431(5) . ?
C6 C7 1.401(5) . ?
C6 C12 1.406(5) . ?
C7 C8 1.378(5) . ?
C7 H7A 0.9400 . ?
C8 C9 1.392(5) . ?
C8 H8A 0.9400 . ?
C9 C11 1.386(5) . ?
C9 C10 1.507(5) . ?
C11 C12 1.400(5) . ?
C11 H11A 0.9400 . ?
C12 C13 1.446(5) . ?
C13 C14 1.394(5) . ?
C14 H14A 0.9400 . ?
C15 C16 1.499(5) . ?
C16 C17 1.381(5) . ?
C16 C28 1.383(5) . ?
C17 C18 1.400(6) . ?
C17 H17A 0.9400 . ?
C18 C19 1.362(6) . ?
C18 H18A 0.9400 . ?
C19 C27 1.420(5) . ?
C20 C21 1.379(6) . ?
C20 C26 1.415(5) . ?
C21 C22 1.378(6) . ?
C21 H21A 0.9400 . ?
C22 C23 1.414(5) . ?
C22 H22A 0.9400 . ?
C23 C25 1.352(5) . ?
C23 C24 1.487(5) . ?
C25 C26 1.394(5) . ?
C25 H25A 0.9400 . ?
C26 C27 1.436(5) . ?
C27 C28 1.396(5) . ?
C28 H28A 0.9400 . ?
C29 C30 1.476(5) . ?
C30 C42 1.399(5) . ?
C30 C31 1.406(5) . ?
C31 C32 1.389(5) . ?
C31 H31A 0.9400 . ?
C32 C33 1.375(5) . ?
C32 H32A 0.9400 . ?
C33 C41 1.429(5) . ?
C34 C35 1.394(6) . ?
C34 C40 1.409(6) . ?
C35 C36 1.367(6) . ?
C35 H35A 0.9400 . ?
C36 C37 1.417(6) . ?
C36 H36A 0.9400 . ?
C37 C39 1.383(5) . ?
C37 C38 1.490(5) . ?
C39 C40 1.388(5) . ?
C39 H39A 0.9400 . ?
C40 C41 1.450(5) . ?
C41 C42 1.373(5) . ?
C42 H42A 0.9400 . ?
C43 C44 1.490(5) . ?
C44 C56 1.383(5) . ?
C44 C45 1.406(5) . ?
C45 C46 1.383(5) . ?
C45 H45A 0.9400 . ?
C46 C47 1.397(5) . ?
C46 H46A 0.9400 . ?
C47 C55 1.406(5) . ?
C48 C49 1.379(5) . ?
C48 C54 1.395(5) . ?
C49 C50 1.383(5) . ?
C49 H49A 0.9400 . ?
C50 C51 1.410(5) . ?
C50 H50A 0.9400 . ?
C51 C53 1.385(5) . ?
C51 C52 1.487(5) . ?
C53 C54 1.385(5) . ?
C53 H53A 0.9400 . ?
C54 C55 1.466(5) . ?
C55 C56 1.389(5) . ?
C56 H56A 0.9400 . ?
C57 C58 1.472(5) . ?
C58 C70 1.383(5) . ?
C58 C59 1.419(5) . ?
C59 C60 1.385(5) . ?
C59 H59A 0.9400 . ?
C60 C61 1.377(5) . ?
C60 H60A 0.9400 . ?
C61 C69 1.417(5) . ?
C62 C63 1.389(5) . ?
C62 C68 1.404(5) . ?
C63 C64 1.332(6) . ?
C63 H63A 0.9400 . ?
C64 C65 1.415(5) . ?
C64 H64A 0.9400 . ?
C65 C67 1.388(5) . ?
C65 C66 1.487(5) . ?
C67 C68 1.403(5) . ?
C67 H67A 0.9400 . ?
C68 C69 1.463(5) . ?
C69 C70 1.368(5) . ?
C70 H70A 0.9400 . ?
C71 C72 1.482(5) . ?
C72 C84 1.407(5) . ?
C72 C73 1.418(5) . ?
C73 C74 1.363(6) . ?
C73 H73A 0.9400 . ?
C74 C75 1.382(6) . ?
C74 H74A 0.9400 . ?
C75 C83 1.422(6) . ?
C76 C77 1.393(7) . ?
C76 C82 1.419(6) . ?
C77 C78 1.381(7) . ?
C77 H77A 0.9400 . ?
C78 C79 1.381(6) . ?
C78 H78A 0.9400 . ?
C79 C81 1.396(5) . ?
C79 C80 1.519(5) . ?
C81 C82 1.379(5) . ?
C81 H81A 0.9400 . ?
C82 C83 1.427(6) . ?
C83 C84 1.398(5) . ?
C84 H84A 0.9400 . ?
C85 C86 1.425(14) . ?
C85 H85A 0.9800 . ?
C85 H85B 0.9800 . ?
C86 H86A 0.9700 . ?
C86 H86B 0.9700 . ?
C86 H86C 0.9700 . ?
C87 C88 1.533(19) . ?
C87 H87A 0.9800 . ?
C87 H87B 0.9800 . ?
C88 H88A 0.9700 . ?
C88 H88B 0.9700 . ?
C88 H88C 0.9700 . ?
C89 C90 1.510(7) . ?
C89 H89A 0.9700 . ?
C89 H89B 0.9700 . ?
C89 H89C 0.9700 . ?
C91 H91A 0.9700 . ?
C91 H91B 0.9700 . ?
C91 H91C 0.9700 . ?
C92 H92A 0.9700 . ?
C92 H92B 0.9700 . ?
C92 H92C 0.9700 . ?
C93 C94 1.59(4) . ?
C93 H93A 0.9800 . ?
C93 H93B 0.9800 . ?
C94 H94A 0.9700 . ?
C94 H94B 0.9700 . ?
C94 H94C 0.9700 . ?
C95 C96 1.296(10) . ?
C96 H96A 0.9700 . ?
C96 H96B 0.9700 . ?
C96 H96C 0.9700 . ?
C97 H97A 0.9700 . ?
C97 H97B 0.9700 . ?
C97 H97C 0.9700 . ?
C98 H98A 0.9700 . ?
C98 H98B 0.9700 . ?
C98 H98C 0.9700 . ?
C99 C100 1.487(10) . ?
C100 H10A 0.9700 . ?
C100 H10B 0.9700 . ?
C100 H10C 0.9700 . ?
C101 H10D 0.9700 . ?
C101 H10E 0.9700 . ?
C101 H10F 0.9700 . ?
C102 H10G 0.9700 . ?
C102 H10H 0.9700 . ?
C102 H10I 0.9700 . ?

loop_
_geom_angle_atom_site_label_1
_geom_angle_atom_site_label_2
_geom_angle_atom_site_label_3
_geom_angle
_geom_angle_site_symmetry_1
_geom_angle_site_symmetry_3
_geom_angle_publ_flag
O18 Cu1 O1 172.99(10) . . ?
O18 Cu1 O16 90.24(11) . . ?
O1 Cu1 O16 90.37(11) . . ?
O18 Cu1 O21 91.60(12) . 3_556 ?
O1 Cu1 O21 86.02(11) . 3_556 ?
O16 Cu1 O21 164.85(11) . 3_556 ?
O18 Cu1 O25 94.79(10) . . ?
O1 Cu1 O25 92.11(10) . . ?
O16 Cu1 O25 94.83(11) . . ?
O21 Cu1 O25 100.00(11) 3_556 . ?
O18 Cu1 Cu2 87.00(7) . . ?
O1 Cu1 Cu2 86.13(7) . . ?
O16 Cu1 Cu2 83.46(7) . . ?
O21 Cu1 Cu2 81.63(8) 3_556 . ?
O25 Cu1 Cu2 177.53(8) . . ?
O15 Cu2 O22 172.11(10) . 3_556 ?
O15 Cu2 O17 90.69(11) . . ?
O22 Cu2 O17 90.07(11) 3_556 . ?
O15 Cu2 O2 90.07(11) . . ?
O22 Cu2 O2 87.24(11) 3_556 . ?
O17 Cu2 O2 165.50(10) . . ?
O15 Cu2 O26 95.38(14) . . ?
O22 Cu2 O26 92.45(15) 3_556 . ?
O17 Cu2 O26 91.03(13) . . ?
O2 Cu2 O26 103.31(12) . . ?
O15 Cu2 Cu1 85.56(7) . . ?
O22 Cu2 Cu1 86.77(8) 3_556 . ?
O17 Cu2 Cu1 82.21(7) . . ?
O2 Cu2 Cu1 83.41(7) . . ?
O26 Cu2 Cu1 173.19(11) . . ?
O24 Cu3 O5 89.09(12) 3_556 . ?
O24 Cu3 O3 169.49(10) 3_556 . ?
O5 Cu3 O3 90.82(11) . . ?
O24 Cu3 O20 90.13(11) 3_556 3_556 ?
O5 Cu3 O20 169.32(10) . 3_556 ?
O3 Cu3 O20 88.01(11) . 3_556 ?
O24 Cu3 O28 96.62(10) 3_556 . ?
O5 Cu3 O28 89.74(10) . . ?
O3 Cu3 O28 93.89(9) . . ?
O20 Cu3 O28 100.93(10) 3_556 . ?
O24 Cu3 Cu4 84.38(8) 3_556 . ?
O5 Cu3 Cu4 83.63(7) . . ?
O3 Cu3 Cu4 85.16(7) . . ?
O20 Cu3 Cu4 85.69(7) 3_556 . ?
O28 Cu3 Cu4 173.28(7) . . ?
O6 Cu4 O23 89.37(11) . 3_556 ?
O6 Cu4 O19 169.94(10) . 3_556 ?
O23 Cu4 O19 90.18(11) 3_556 3_556 ?
O6 Cu4 O4 89.72(11) . . ?
O23 Cu4 O4 169.32(10) 3_556 . ?
O19 Cu4 O4 88.86(11) 3_556 . ?
O6 Cu4 O27 96.67(11) . . ?
O23 Cu4 O27 100.10(11) 3_556 . ?
O19 Cu4 O27 93.31(11) 3_556 . ?
O4 Cu4 O27 90.57(11) . . ?
O6 Cu4 Cu3 86.24(7) . . ?
O23 Cu4 Cu3 84.97(7) 3_556 . ?
O19 Cu4 Cu3 83.71(7) 3_556 . ?
O4 Cu4 Cu3 84.35(7) . . ?
O27 Cu4 Cu3 174.15(9) . . ?
O10 Cu5 O14 87.29(11) . . ?
O10 Cu5 O12 169.84(11) . . ?
O14 Cu5 O12 89.09(11) . . ?
O10 Cu5 O8 91.95(11) . . ?
O14 Cu5 O8 167.08(10) . . ?
O12 Cu5 O8 89.45(12) . . ?
O10 Cu5 O29 97.12(11) . . ?
O14 Cu5 O29 99.16(10) . . ?
O12 Cu5 O29 92.83(11) . . ?
O8 Cu5 O29 93.74(11) . . ?
O10 Cu5 Cu6 83.41(7) . . ?
O14 Cu5 Cu6 85.48(7) . . ?
O12 Cu5 Cu6 86.84(7) . . ?
O8 Cu5 Cu6 81.62(7) . . ?
O29 Cu5 Cu6 175.35(8) . . ?
O11 Cu6 O7 89.72(12) . . ?
O11 Cu6 O13 89.63(12) . . ?
O7 Cu6 O13 170.62(10) . . ?
O11 Cu6 O9 166.89(11) . . ?
O7 Cu6 O9 90.22(11) . . ?
O13 Cu6 O9 88.30(12) . . ?
O11 Cu6 O30 96.90(14) . . ?
O7 Cu6 O30 94.68(12) . . ?
O13 Cu6 O30 94.70(12) . . ?
O9 Cu6 O30 96.17(13) . . ?
O11 Cu6 Cu5 81.82(8) . . ?
O7 Cu6 Cu5 87.50(7) . . ?
O13 Cu6 Cu5 83.14(7) . . ?
O9 Cu6 Cu5 85.08(7) . . ?
O30 Cu6 Cu5 177.48(12) . . ?
C1 O1 Cu1 120.5(2) . . ?
C1 O2 Cu2 123.2(2) . . ?
C10 O3 Cu3 121.6(2) . . ?
C10 O4 Cu4 122.7(2) . . ?
C43 O5 Cu3 123.6(2) . . ?
C43 O6 Cu4 121.2(2) . . ?
C52 O7 Cu6 119.7(2) . . ?
C52 O8 Cu5 124.9(2) . . ?
C71 O9 Cu6 121.0(2) . . ?
C71 O10 Cu5 123.1(2) . . ?
C24 O11 Cu6 126.2(2) . . ?
C24 O12 Cu5 119.6(2) . . ?
C57 O13 Cu6 124.3(2) . . ?
C57 O14 Cu5 121.6(2) . . ?
C15 O15 Cu2 121.4(2) . . ?
C15 O16 Cu1 122.8(2) . . ?
C29 O17 Cu2 124.9(2) . . ?
C29 O18 Cu1 120.4(2) . . ?
C66 O19 Cu4 123.6(2) . 3_556 ?
C66 O20 Cu3 121.6(2) . 3_556 ?
C80 O21 Cu1 124.8(3) . 3_556 ?
C80 O22 Cu2 119.3(2) . 3_556 ?
C38 O23 Cu4 121.9(2) . 3_556 ?
C38 O24 Cu3 122.9(2) . 3_556 ?
C85 O25 Cu1 127.9(3) . . ?
C85 O25 H25B 116.0 . . ?
Cu1 O25 H25B 116.0 . . ?
C87 O26 Cu2 150(3) . . ?
C87 O26 H26A 100.6 . . ?
Cu2 O26 H26A 106.1 . . ?
C93 O27 Cu4 131.4(7) . . ?
C93 O27 H27A 114.3 . . ?
Cu4 O27 H27A 114.3 . . ?
C90 O28 Cu3 134.4(2) . . ?
C95 O29 Cu5 128.5(4) . . ?
C99 O30 Cu6 135.4(4) . . ?
C6 N1 C5 109.4(3) . . ?
C6 N1 H1A 125.3 . . ?
C5 N1 H1A 125.3 . . ?
C19 N2 C20 110.1(3) . . ?
C19 N2 H2A 125.0 . . ?
C20 N2 H2A 125.0 . . ?
C34 N3 C33 109.0(3) . . ?
C34 N3 H3B 125.5 . . ?
C33 N3 H3B 125.5 . . ?
C47 N4 C48 109.4(3) . . ?
C47 N4 H4B 125.3 . . ?
C48 N4 H4B 125.3 . . ?
C62 N5 C61 109.6(3) . . ?
C62 N5 H5A 125.2 . . ?
C61 N5 H5A 125.2 . . ?
C90 N6 C92 118.6(4) . . ?
C90 N6 C91 125.0(5) . . ?
C92 N6 C91 116.2(4) . . ?
C97 N7 C95 110.5(10) . . ?
C97 N7 C98 122.0(13) . . ?
C95 N7 C98 125.8(11) . . ?
C99 N8 C102 118.3(7) . . ?
C99 N8 C101 124.0(9) . . ?
C102 N8 C101 116.6(9) . . ?
C75 N28 C76 110.3(4) . . ?
C75 N28 H28B 124.9 . . ?
C76 N28 H28B 124.9 . . ?
O2 C1 O1 125.4(3) . . ?
O2 C1 C2 117.7(3) . . ?
O1 C1 C2 116.9(3) . . ?
C14 C2 C3 121.0(3) . . ?
C14 C2 C1 119.6(3) . . ?
C3 C2 C1 119.3(3) . . ?
C4 C3 C2 122.3(4) . . ?
C4 C3 H3A 118.8 . . ?
C2 C3 H3A 118.8 . . ?
C3 C4 C5 116.9(4) . . ?
C3 C4 H4A 121.5 . . ?
C5 C4 H4A 121.5 . . ?
N1 C5 C4 130.0(4) . . ?
N1 C5 C13 108.6(3) . . ?
C4 C5 C13 121.5(4) . . ?
N1 C6 C7 129.3(3) . . ?
N1 C6 C12 109.5(3) . . ?
C7 C6 C12 121.2(3) . . ?
C8 C7 C6 117.3(3) . . ?
C8 C7 H7A 121.4 . . ?
C6 C7 H7A 121.4 . . ?
C7 C8 C9 122.3(3) . . ?
C7 C8 H8A 118.8 . . ?
C9 C8 H8A 118.8 . . ?
C11 C9 C8 120.6(3) . . ?
C11 C9 C10 119.1(3) . . ?
C8 C9 C10 120.3(3) . . ?
O4 C10 O3 125.9(3) . . ?
O4 C10 C9 117.3(3) . . ?
O3 C10 C9 116.8(3) . . ?
C9 C11 C12 118.4(3) . . ?
C9 C11 H11A 120.8 . . ?
C12 C11 H11A 120.8 . . ?
C11 C12 C6 120.1(3) . . ?
C11 C12 C13 133.2(3) . . ?
C6 C12 C13 106.7(3) . . ?
C14 C13 C5 119.8(3) . . ?
C14 C13 C12 134.4(3) . . ?
C5 C13 C12 105.8(3) . . ?
C2 C14 C13 118.5(3) . . ?
C2 C14 H14A 120.8 . . ?
C13 C14 H14A 120.8 . . ?
O16 C15 O15 126.1(3) . . ?
O16 C15 C16 117.1(3) . . ?
O15 C15 C16 116.8(3) . . ?
C17 C16 C28 120.1(3) . . ?
C17 C16 C15 120.2(3) . . ?
C28 C16 C15 119.5(3) . . ?
C16 C17 C18 121.5(4) . . ?
C16 C17 H17A 119.2 . . ?
C18 C17 H17A 119.2 . . ?
C19 C18 C17 118.3(4) . . ?
C19 C18 H18A 120.9 . . ?
C17 C18 H18A 120.9 . . ?
C18 C19 N2 130.4(4) . . ?
C18 C19 C27 121.4(3) . . ?
N2 C19 C27 108.1(3) . . ?
C21 C20 N2 130.2(4) . . ?
C21 C20 C26 122.1(4) . . ?
N2 C20 C26 107.7(3) . . ?
C22 C21 C20 117.7(4) . . ?
C22 C21 H21A 121.1 . . ?
C20 C21 H21A 121.1 . . ?
C21 C22 C23 120.9(4) . . ?
C21 C22 H22A 119.5 . . ?
C23 C22 H22A 119.5 . . ?
C25 C23 C22 120.7(4) . . ?
C25 C23 C24 119.6(3) . . ?
C22 C23 C24 119.7(3) . . ?
O12 C24 O11 125.1(4) . . ?
O12 C24 C23 119.4(3) . . ?
O11 C24 C23 115.4(3) . . ?
C23 C25 C26 120.1(3) . . ?
C23 C25 H25A 119.9 . . ?
C26 C25 H25A 119.9 . . ?
C25 C26 C20 118.4(3) . . ?
C25 C26 C27 134.1(3) . . ?
C20 C26 C27 107.5(3) . . ?
C28 C27 C19 119.0(3) . . ?
C28 C27 C26 134.4(3) . . ?
C19 C27 C26 106.6(3) . . ?
C16 C28 C27 119.6(3) . . ?
C16 C28 H28A 120.2 . . ?
C27 C28 H28A 120.2 . . ?
O18 C29 O17 125.1(3) . . ?
O18 C29 C30 117.7(3) . . ?
O17 C29 C30 117.2(3) . . ?
C42 C30 C31 119.5(3) . . ?
C42 C30 C29 120.2(3) . . ?
C31 C30 C29 120.2(3) . . ?
C32 C31 C30 121.5(3) . . ?
C32 C31 H31A 119.3 . . ?
C30 C31 H31A 119.3 . . ?
C33 C32 C31 118.1(4) . . ?
C33 C32 H32A 121.0 . . ?
C31 C32 H32A 121.0 . . ?
C32 C33 N3 129.8(4) . . ?
C32 C33 C41 121.7(4) . . ?
N3 C33 C41 108.5(3) . . ?
N3 C34 C35 129.0(4) . . ?
N3 C34 C40 109.5(4) . . ?
C35 C34 C40 121.6(4) . . ?
C36 C35 C34 117.5(4) . . ?
C36 C35 H35A 121.3 . . ?
C34 C35 H35A 121.3 . . ?
C35 C36 C37 122.3(4) . . ?
C35 C36 H36A 118.9 . . ?
C37 C36 H36A 118.9 . . ?
C39 C37 C36 119.5(4) . . ?
C39 C37 C38 120.8(3) . . ?
C36 C37 C38 119.7(3) . . ?
O23 C38 O24 125.7(3) . . ?
O23 C38 C37 116.5(3) . . ?
O24 C38 C37 117.8(3) . . ?
C37 C39 C40 119.5(4) . . ?
C37 C39 H39A 120.3 . . ?
C40 C39 H39A 120.3 . . ?
C39 C40 C34 119.7(4) . . ?
C39 C40 C41 133.3(4) . . ?
C34 C40 C41 106.8(3) . . ?
C42 C41 C33 119.2(3) . . ?
C42 C41 C40 134.6(3) . . ?
C33 C41 C40 106.3(3) . . ?
C41 C42 C30 120.0(3) . . ?
C41 C42 H42A 120.0 . . ?
C30 C42 H42A 120.0 . . ?
O6 C43 O5 125.3(3) . . ?
O6 C43 C44 117.6(3) . . ?
O5 C43 C44 117.2(3) . . ?
C56 C44 C45 119.9(3) . . ?
C56 C44 C43 120.3(3) . . ?
C45 C44 C43 119.8(3) . . ?
C46 C45 C44 122.3(3) . . ?
C46 C45 H45A 118.9 . . ?
C44 C45 H45A 118.9 . . ?
C45 C46 C47 117.0(3) . . ?
C45 C46 H46A 121.5 . . ?
C47 C46 H46A 121.5 . . ?
N4 C47 C46 128.7(3) . . ?
N4 C47 C55 109.8(3) . . ?
C46 C47 C55 121.4(3) . . ?
C49 C48 N4 129.4(4) . . ?
C49 C48 C54 121.5(3) . . ?
N4 C48 C54 109.1(3) . . ?
C48 C49 C50 118.3(4) . . ?
C48 C49 H49A 120.8 . . ?
C50 C49 H49A 120.8 . . ?
C49 C50 C51 121.0(3) . . ?
C49 C50 H50A 119.5 . . ?
C51 C50 H50A 119.5 . . ?
C53 C51 C50 119.6(3) . . ?
C53 C51 C52 120.4(3) . . ?
C50 C51 C52 120.0(3) . . ?
O7 C52 O8 126.1(3) . . ?
O7 C52 C51 117.4(3) . . ?
O8 C52 C51 116.5(3) . . ?
C54 C53 C51 119.5(3) . . ?
C54 C53 H53A 120.2 . . ?
C51 C53 H53A 120.2 . . ?
C53 C54 C48 119.9(3) . . ?
C53 C54 C55 133.7(3) . . ?
C48 C54 C55 106.3(3) . . ?
C56 C55 C47 120.3(3) . . ?
C56 C55 C54 134.3(3) . . ?
C47 C55 C54 105.4(3) . . ?
C44 C56 C55 119.0(3) . . ?
C44 C56 H56A 120.5 . . ?
C55 C56 H56A 120.5 . . ?
O14 C57 O13 124.8(3) . . ?
O14 C57 C58 118.8(3) . . ?
O13 C57 C58 116.4(3) . . ?
C70 C58 C59 118.8(3) . . ?
C70 C58 C57 121.3(3) . . ?
C59 C58 C57 119.9(3) . . ?
C60 C59 C58 121.7(3) . . ?
C60 C59 H59A 119.2 . . ?
C58 C59 H59A 119.2 . . ?
C61 C60 C59 117.8(3) . . ?
C61 C60 H60A 121.1 . . ?
C59 C60 H60A 121.1 . . ?
C60 C61 N5 129.2(3) . . ?
C60 C61 C69 121.4(3) . . ?
N5 C61 C69 109.3(3) . . ?
N5 C62 C63 130.2(3) . . ?
N5 C62 C68 108.6(3) . . ?
C63 C62 C68 121.2(3) . . ?
C64 C63 C62 118.2(3) . . ?
C64 C63 H63A 120.9 . . ?
C62 C63 H63A 120.9 . . ?
C63 C64 C65 122.8(3) . . ?
C63 C64 H64A 118.6 . . ?
C65 C64 H64A 118.6 . . ?
C67 C65 C64 119.8(3) . . ?
C67 C65 C66 120.0(3) . . ?
C64 C65 C66 120.3(3) . . ?
O20 C66 O19 125.0(3) . . ?
O20 C66 C65 118.0(3) . . ?
O19 C66 C65 117.0(3) . . ?
C65 C67 C68 117.8(3) . . ?
C65 C67 H67A 121.1 . . ?
C68 C67 H67A 121.1 . . ?
C67 C68 C62 120.1(3) . . ?
C67 C68 C69 132.4(3) . . ?
C62 C68 C69 107.4(3) . . ?
C70 C69 C61 119.6(3) . . ?
C70 C69 C68 135.3(3) . . ?
C61 C69 C68 105.0(3) . . ?
C69 C70 C58 120.5(3) . . ?
C69 C70 H70A 119.7 . . ?
C58 C70 H70A 119.7 . . ?
O9 C71 O10 126.2(4) . . ?
O9 C71 C72 117.1(3) . . ?
O10 C71 C72 116.6(3) . . ?
C84 C72 C73 119.1(3) . . ?
C84 C72 C71 120.5(3) . . ?
C73 C72 C71 120.3(3) . . ?
C74 C73 C72 122.0(4) . . ?
C74 C73 H73A 119.0 . . ?
C72 C73 H73A 119.0 . . ?
C73 C74 C75 118.2(4) . . ?
C73 C74 H74A 120.9 . . ?
C75 C74 H74A 120.9 . . ?
N28 C75 C74 129.6(4) . . ?
N28 C75 C83 107.8(4) . . ?
C74 C75 C83 122.5(4) . . ?
N28 C76 C77 129.2(4) . . ?
N28 C76 C82 108.7(4) . . ?
C77 C76 C82 121.7(4) . . ?
C78 C77 C76 116.8(5) . . ?
C78 C77 H77A 121.6 . . ?
C76 C77 H77A 121.6 . . ?
C77 C78 C79 122.2(4) . . ?
C77 C78 H78A 118.9 . . ?
C79 C78 H78A 118.9 . . ?
C78 C79 C81 121.2(4) . . ?
C78 C79 C80 118.4(4) . . ?
C81 C79 C80 120.4(4) . . ?
O22 C80 O21 126.1(3) . . ?
O22 C80 C79 117.8(3) . . ?
O21 C80 C79 116.1(3) . . ?
C82 C81 C79 118.1(4) . . ?
C82 C81 H81A 120.9 . . ?
C79 C81 H81A 120.9 . . ?
C81 C82 C76 119.9(4) . . ?
C81 C82 C83 134.3(4) . . ?
C76 C82 C83 105.8(4) . . ?
C84 C83 C75 118.2(3) . . ?
C84 C83 C82 134.5(3) . . ?
C75 C83 C82 107.3(4) . . ?
C83 C84 C72 119.8(3) . . ?
C83 C84 H84A 120.1 . . ?
C72 C84 H84A 120.1 . . ?
O25 C85 C86 114.6(9) . . ?
O25 C85 H85A 108.6 . . ?
C86 C85 H85A 108.6 . . ?
O25 C85 H85B 108.6 . . ?
C86 C85 H85B 108.6 . . ?
H85A C85 H85B 107.6 . . ?
C85 C86 H86A 109.5 . . ?
C85 C86 H86B 109.5 . . ?
H86A C86 H86B 109.5 . . ?
C85 C86 H86C 109.5 . . ?
H86A C86 H86C 109.5 . . ?
H86B C86 H86C 109.5 . . ?
O26 C87 C88 120(3) . . ?
O26 C87 H87A 107.4 . . ?
C88 C87 H87A 107.4 . . ?
O26 C87 H87B 107.4 . . ?
C88 C87 H87B 107.4 . . ?
H87A C87 H87B 106.9 . . ?
C87 C88 H88A 109.5 . . ?
C87 C88 H88B 109.5 . . ?
H88A C88 H88B 109.5 . . ?
C87 C88 H88C 109.5 . . ?
H88A C88 H88C 109.5 . . ?
H88B C88 H88C 109.5 . . ?
C90 C89 H89A 109.5 . . ?
C90 C89 H89B 109.5 . . ?
H89A C89 H89B 109.5 . . ?
C90 C89 H89C 109.5 . . ?
H89A C89 H89C 109.5 . . ?
H89B C89 H89C 109.5 . . ?
O28 C90 N6 123.3(4) . . ?
O28 C90 C89 119.4(4) . . ?
N6 C90 C89 117.3(4) . . ?
N6 C91 H91A 109.5 . . ?
N6 C91 H91B 109.5 . . ?
H91A C91 H91B 109.5 . . ?
N6 C91 H91C 109.5 . . ?
H91A C91 H91C 109.5 . . ?
H91B C91 H91C 109.5 . . ?
N6 C92 H92A 109.5 . . ?
N6 C92 H92B 109.5 . . ?
H92A C92 H92B 109.5 . . ?
N6 C92 H92C 109.5 . . ?
H92A C92 H92C 109.5 . . ?
H92B C92 H92C 109.5 . . ?
O27 C93 C94 119.8(16) . . ?
O27 C93 H93A 107.4 . . ?
C94 C93 H93A 107.4 . . ?
O27 C93 H93B 107.4 . . ?
C94 C93 H93B 107.4 . . ?
H93A C93 H93B 106.9 . . ?
C93 C94 H94A 109.5 . . ?
C93 C94 H94B 109.5 . . ?
H94A C94 H94B 109.5 . . ?
C93 C94 H94C 109.5 . . ?
H94A C94 H94C 109.5 . . ?
H94B C94 H94C 109.5 . . ?
O29 C95 C96 131.0(7) . . ?
O29 C95 N7 111.0(7) . . ?
C96 C95 N7 112.4(9) . . ?
C95 C96 H96A 109.5 . . ?
C95 C96 H96B 109.5 . . ?
H96A C96 H96B 109.5 . . ?
C95 C96 H96C 109.5 . . ?
H96A C96 H96C 109.5 . . ?
H96B C96 H96C 109.5 . . ?
N7 C97 H97A 109.5 . . ?
N7 C97 H97B 109.5 . . ?
H97A C97 H97B 109.5 . . ?
N7 C97 H97C 109.5 . . ?
H97A C97 H97C 109.5 . . ?
H97B C97 H97C 109.5 . . ?
N7 C98 H98A 109.5 . . ?
N7 C98 H98B 109.5 . . ?
H98A C98 H98B 109.5 . . ?
N7 C98 H98C 109.5 . . ?
H98A C98 H98C 109.5 . . ?
H98B C98 H98C 109.5 . . ?
O30 C99 N8 118.5(7) . . ?
O30 C99 C100 123.8(6) . . ?
N8 C99 C100 117.5(7) . . ?
C99 C100 H10A 109.5 . . ?
C99 C100 H10B 109.5 . . ?
H10A C100 H10B 109.5 . . ?
C99 C100 H10C 109.5 . . ?
H10A C100 H10C 109.5 . . ?
H10B C100 H10C 109.5 . . ?
N8 C101 H10D 109.5 . . ?
N8 C101 H10E 109.5 . . ?
H10D C101 H10E 109.5 . . ?
N8 C101 H10F 109.5 . . ?
H10D C101 H10F 109.5 . . ?
H10E C101 H10F 109.5 . . ?
N8 C102 H10G 109.5 . . ?
N8 C102 H10H 109.5 . . ?
H10G C102 H10H 109.5 . . ?
N8 C102 H10I 109.5 . . ?
H10G C102 H10I 109.5 . . ?
H10H C102 H10I 109.5 . . ?

loop_
_geom_torsion_atom_site_label_1
_geom_torsion_atom_site_label_2
_geom_torsion_atom_site_label_3
_geom_torsion_atom_site_label_4
_geom_torsion
_geom_torsion_site_symmetry_1
_geom_torsion_site_symmetry_2
_geom_torsion_site_symmetry_3
_geom_torsion_site_symmetry_4
_geom_torsion_publ_flag
O18 Cu1 Cu2 O15 -95.83(11) . . . . ?
O1 Cu1 Cu2 O15 85.58(11) . . . . ?
O16 Cu1 Cu2 O15 -5.24(11) . . . . ?
O21 Cu1 Cu2 O15 172.11(11) 3_556 . . . ?
O25 Cu1 Cu2 O15 40.8(18) . . . . ?
O18 Cu1 Cu2 O22 85.99(11) . . . 3_556 ?
O1 Cu1 Cu2 O22 -92.60(11) . . . 3_556 ?
O16 Cu1 Cu2 O22 176.58(11) . . . 3_556 ?
O21 Cu1 Cu2 O22 -6.07(12) 3_556 . . 3_556 ?
O25 Cu1 Cu2 O22 -137.4(18) . . . 3_556 ?
O18 Cu1 Cu2 O17 -4.52(11) . . . . ?
O1 Cu1 Cu2 O17 176.89(11) . . . . ?
O16 Cu1 Cu2 O17 86.07(11) . . . . ?
O21 Cu1 Cu2 O17 -96.58(12) 3_556 . . . ?
O25 Cu1 Cu2 O17 132.1(18) . . . . ?
O18 Cu1 Cu2 O2 173.58(11) . . . . ?
O1 Cu1 Cu2 O2 -5.01(11) . . . . ?
O16 Cu1 Cu2 O2 -95.83(11) . . . . ?
O21 Cu1 Cu2 O2 81.52(12) 3_556 . . . ?
O25 Cu1 Cu2 O2 -49.8(18) . . . . ?
O18 Cu1 Cu2 O26 2.4(11) . . . . ?
O1 Cu1 Cu2 O26 -176.2(10) . . . . ?
O16 Cu1 Cu2 O26 93.0(11) . . . . ?
O21 Cu1 Cu2 O26 -89.7(11) 3_556 . . . ?
O25 Cu1 Cu2 O26 139(2) . . . . ?
O24 Cu3 Cu4 O6 87.32(12) 3_556 . . . ?
O5 Cu3 Cu4 O6 -2.38(11) . . . . ?
O3 Cu3 Cu4 O6 -93.76(11) . . . . ?
O20 Cu3 Cu4 O6 177.88(11) 3_556 . . . ?
O28 Cu3 Cu4 O6 -11.6(6) . . . . ?
O24 Cu3 Cu4 O23 -2.38(11) 3_556 . . 3_556 ?
O5 Cu3 Cu4 O23 -92.08(11) . . . 3_556 ?
O3 Cu3 Cu4 O23 176.54(11) . . . 3_556 ?
O20 Cu3 Cu4 O23 88.18(11) 3_556 . . 3_556 ?
O28 Cu3 Cu4 O23 -101.3(6) . . . 3_556 ?
O24 Cu3 Cu4 O19 -93.11(11) 3_556 . . 3_556 ?
O5 Cu3 Cu4 O19 177.18(11) . . . 3_556 ?
O3 Cu3 Cu4 O19 85.81(11) . . . 3_556 ?
O20 Cu3 Cu4 O19 -2.55(11) 3_556 . . 3_556 ?
O28 Cu3 Cu4 O19 168.0(6) . . . 3_556 ?
O24 Cu3 Cu4 O4 177.41(11) 3_556 . . . ?
O5 Cu3 Cu4 O4 87.70(11) . . . . ?
O3 Cu3 Cu4 O4 -3.67(11) . . . . ?
O20 Cu3 Cu4 O4 -92.03(11) 3_556 . . . ?
O28 Cu3 Cu4 O4 78.5(6) . . . . ?
O24 Cu3 Cu4 O27 -152.7(9) 3_556 . . . ?
O5 Cu3 Cu4 O27 117.6(9) . . . . ?
O3 Cu3 Cu4 O27 26.2(9) . . . . ?
O20 Cu3 Cu4 O27 -62.1(9) 3_556 . . . ?
O28 Cu3 Cu4 O27 108.4(11) . . . . ?
O10 Cu5 Cu6 O11 173.17(11) . . . . ?
O14 Cu5 Cu6 O11 85.37(11) . . . . ?
O12 Cu5 Cu6 O11 -3.97(11) . . . . ?
O8 Cu5 Cu6 O11 -93.87(12) . . . . ?
O29 Cu5 Cu6 O11 -90.0(11) . . . . ?
O10 Cu5 Cu6 O7 -96.76(12) . . . . ?
O14 Cu5 Cu6 O7 175.45(11) . . . . ?
O12 Cu5 Cu6 O7 86.11(11) . . . . ?
O8 Cu5 Cu6 O7 -3.79(12) . . . . ?
O29 Cu5 Cu6 O7 0.0(11) . . . . ?
O10 Cu5 Cu6 O13 82.55(12) . . . . ?
O14 Cu5 Cu6 O13 -5.24(12) . . . . ?
O12 Cu5 Cu6 O13 -94.58(12) . . . . ?
O8 Cu5 Cu6 O13 175.51(12) . . . . ?
O29 Cu5 Cu6 O13 179(100) . . . . ?
O10 Cu5 Cu6 O9 -6.32(11) . . . . ?
O14 Cu5 Cu6 O9 -94.11(11) . . . . ?
O12 Cu5 Cu6 O9 176.55(11) . . . . ?
O8 Cu5 Cu6 O9 86.64(12) . . . . ?
O29 Cu5 Cu6 O9 90.5(11) . . . . ?
O10 Cu5 Cu6 O30 113(2) . . . . ?
O14 Cu5 Cu6 O30 26(2) . . . . ?
O12 Cu5 Cu6 O30 -64(2) . . . . ?
O8 Cu5 Cu6 O30 -154(2) . . . . ?
O29 Cu5 Cu6 O30 -150(3) . . . . ?
O18 Cu1 O1 C1 -0.6(11) . . . . ?
O16 Cu1 O1 C1 94.4(3) . . . . ?
O21 Cu1 O1 C1 -70.9(3) 3_556 . . . ?
O25 Cu1 O1 C1 -170.8(3) . . . . ?
Cu2 Cu1 O1 C1 10.9(3) . . . . ?
O15 Cu2 O2 C1 -84.8(3) . . . . ?
O22 Cu2 O2 C1 87.8(3) 3_556 . . . ?
O17 Cu2 O2 C1 8.3(6) . . . . ?
O26 Cu2 O2 C1 179.7(3) . . . . ?
Cu1 Cu2 O2 C1 0.7(3) . . . . ?
O24 Cu3 O3 C10 9.5(8) 3_556 . . . ?
O5 Cu3 O3 C10 -79.9(3) . . . . ?
O20 Cu3 O3 C10 89.4(3) 3_556 . . . ?
O28 Cu3 O3 C10 -169.7(3) . . . . ?
Cu4 Cu3 O3 C10 3.6(3) . . . . ?
O6 Cu4 O4 C10 91.3(3) . . . . ?
O23 Cu4 O4 C10 6.2(8) 3_556 . . . ?
O19 Cu4 O4 C10 -78.7(3) 3_556 . . . ?
O27 Cu4 O4 C10 -172.0(3) . . . . ?
Cu3 Cu4 O4 C10 5.1(3) . . . . ?
O24 Cu3 O5 C43 -80.6(3) 3_556 . . . ?
O3 Cu3 O5 C43 88.9(3) . . . . ?
O20 Cu3 O5 C43 5.3(8) 3_556 . . . ?
O28 Cu3 O5 C43 -177.2(3) . . . . ?
Cu4 Cu3 O5 C43 3.9(3) . . . . ?
O23 Cu4 O6 C43 86.8(3) 3_556 . . . ?
O19 Cu4 O6 C43 -0.7(8) 3_556 . . . ?
O4 Cu4 O6 C43 -82.6(3) . . . . ?
O27 Cu4 O6 C43 -173.1(3) . . . . ?
Cu3 Cu4 O6 C43 1.8(3) . . . . ?
O11 Cu6 O7 C52 86.6(3) . . . . ?
O13 Cu6 O7 C52 0.5(9) . . . . ?
O9 Cu6 O7 C52 -80.3(3) . . . . ?
O30 Cu6 O7 C52 -176.5(3) . . . . ?
Cu5 Cu6 O7 C52 4.7(3) . . . . ?
O10 Cu5 O8 C52 87.3(3) . . . . ?
O14 Cu5 O8 C52 0.9(7) . . . . ?
O12 Cu5 O8 C52 -82.7(3) . . . . ?
O29 Cu5 O8 C52 -175.5(3) . . . . ?
Cu6 Cu5 O8 C52 4.2(3) . . . . ?
O11 Cu6 O9 C71 8.3(7) . . . . ?
O7 Cu6 O9 C71 98.0(3) . . . . ?
O13 Cu6 O9 C71 -72.7(3) . . . . ?
O30 Cu6 O9 C71 -167.2(3) . . . . ?
Cu5 Cu6 O9 C71 10.6(3) . . . . ?
O14 Cu5 O10 C71 90.2(3) . . . . ?
O12 Cu5 O10 C71 20.9(8) . . . . ?
O8 Cu5 O10 C71 -76.9(3) . . . . ?
O29 Cu5 O10 C71 -170.9(3) . . . . ?
Cu6 Cu5 O10 C71 4.4(3) . . . . ?
O7 Cu6 O11 C24 -84.3(3) . . . . ?
O13 Cu6 O11 C24 86.3(3) . . . . ?
O9 Cu6 O11 C24 5.5(7) . . . . ?
O30 Cu6 O11 C24 -179.0(3) . . . . ?
Cu5 Cu6 O11 C24 3.2(3) . . . . ?
O10 Cu5 O12 C24 -10.2(8) . . . . ?
O14 Cu5 O12 C24 -79.3(3) . . . . ?
O8 Cu5 O12 C24 87.8(3) . . . . ?
O29 Cu5 O12 C24 -178.5(3) . . . . ?
Cu6 Cu5 O12 C24 6.2(3) . . . . ?
O11 Cu6 O13 C57 -77.3(3) . . . . ?
O7 Cu6 O13 C57 8.7(9) . . . . ?
O9 Cu6 O13 C57 89.7(3) . . . . ?
O30 Cu6 O13 C57 -174.2(3) . . . . ?
Cu5 Cu6 O13 C57 4.5(3) . . . . ?
O10 Cu5 O14 C57 -75.6(3) . . . . ?
O12 Cu5 O14 C57 94.9(3) . . . . ?
O8 Cu5 O14 C57 11.4(7) . . . . ?
O29 Cu5 O14 C57 -172.3(3) . . . . ?
Cu6 Cu5 O14 C57 8.0(3) . . . . ?
O22 Cu2 O15 C15 17.5(10) 3_556 . . . ?
O17 Cu2 O15 C15 -78.0(3) . . . . ?
O2 Cu2 O15 C15 87.5(3) . . . . ?
O26 Cu2 O15 C15 -169.1(3) . . . . ?
Cu1 Cu2 O15 C15 4.1(3) . . . . ?
O18 Cu1 O16 C15 95.3(3) . . . . ?
O1 Cu1 O16 C15 -77.7(3) . . . . ?
O21 Cu1 O16 C15 -1.8(6) 3_556 . . . ?
O25 Cu1 O16 C15 -169.9(3) . . . . ?
Cu2 Cu1 O16 C15 8.3(3) . . . . ?
O15 Cu2 O17 C29 91.2(3) . . . . ?
O22 Cu2 O17 C29 -80.9(3) 3_556 . . . ?
O2 Cu2 O17 C29 -1.7(6) . . . . ?
O26 Cu2 O17 C29 -173.4(3) . . . . ?
Cu1 Cu2 O17 C29 5.8(3) . . . . ?
O1 Cu1 O18 C29 16.5(11) . . . . ?
O16 Cu1 O18 C29 -78.5(3) . . . . ?
O21 Cu1 O18 C29 86.5(3) 3_556 . . . ?
O25 Cu1 O18 C29 -173.3(3) . . . . ?
Cu2 Cu1 O18 C29 5.0(3) . . . . ?
O18 Cu1 O25 C85 11.3(7) . . . . ?
O1 Cu1 O25 C85 -169.9(7) . . . . ?
O16 Cu1 O25 C85 -79.4(7) . . . . ?
O21 Cu1 O25 C85 103.7(7) 3_556 . . . ?
Cu2 Cu1 O25 C85 -125.2(18) . . . . ?
O15 Cu2 O26 C87 86(3) . . . . ?
O22 Cu2 O26 C87 -95(3) 3_556 . . . ?
O17 Cu2 O26 C87 -4(3) . . . . ?
O2 Cu2 O26 C87 178(3) . . . . ?
Cu1 Cu2 O26 C87 -11(3) . . . . ?
O6 Cu4 O27 C93 -33.8(17) . . . . ?
O23 Cu4 O27 C93 56.7(17) 3_556 . . . ?
O19 Cu4 O27 C93 147.5(17) 3_556 . . . ?
O4 Cu4 O27 C93 -123.6(17) . . . . ?
Cu3 Cu4 O27 C93 -153.3(18) . . . . ?
O24 Cu3 O28 C90 142.2(4) 3_556 . . . ?
O5 Cu3 O28 C90 -128.7(4) . . . . ?
O3 Cu3 O28 C90 -37.9(4) . . . . ?
O20 Cu3 O28 C90 50.8(4) 3_556 . . . ?
Cu4 Cu3 O28 C90 -119.6(6) . . . . ?
O10 Cu5 O29 C95 36.5(8) . . . . ?
O14 Cu5 O29 C95 124.9(8) . . . . ?
O12 Cu5 O29 C95 -145.6(8) . . . . ?
O8 Cu5 O29 C95 -56.0(8) . . . . ?
Cu6 Cu5 O29 C95 -59.8(14) . . . . ?
O11 Cu6 O30 C99 -143.6(7) . . . . ?
O7 Cu6 O30 C99 126.2(7) . . . . ?
O13 Cu6 O30 C99 -53.4(7) . . . . ?
O9 Cu6 O30 C99 35.4(7) . . . . ?
Cu5 Cu6 O30 C99 -84(3) . . . . ?
Cu2 O2 C1 O1 7.9(5) . . . . ?
Cu2 O2 C1 C2 -172.0(2) . . . . ?
Cu1 O1 C1 O2 -14.4(5) . . . . ?
Cu1 O1 C1 C2 165.5(3) . . . . ?
O2 C1 C2 C14 -1.8(6) . . . . ?
O1 C1 C2 C14 178.2(4) . . . . ?
O2 C1 C2 C3 175.3(4) . . . . ?
O1 C1 C2 C3 -4.6(6) . . . . ?
C14 C2 C3 C4 0.3(7) . . . . ?
C1 C2 C3 C4 -176.8(4) . . . . ?
C2 C3 C4 C5 -0.7(7) . . . . ?
C6 N1 C5 C4 -179.8(5) . . . . ?
C6 N1 C5 C13 0.2(6) . . . . ?
C3 C4 C5 N1 -179.9(5) . . . . ?
C3 C4 C5 C13 0.1(8) . . . . ?
C5 N1 C6 C7 -179.2(5) . . . . ?
C5 N1 C6 C12 0.0(5) . . . . ?
N1 C6 C7 C8 178.9(5) . . . . ?
C12 C6 C7 C8 -0.3(7) . . . . ?
C6 C7 C8 C9 0.1(6) . . . . ?
C7 C8 C9 C11 0.9(6) . . . . ?
C7 C8 C9 C10 -177.3(4) . . . . ?
Cu4 O4 C10 O3 -4.1(5) . . . . ?
Cu4 O4 C10 C9 177.4(2) . . . . ?
Cu3 O3 C10 O4 -0.9(5) . . . . ?
Cu3 O3 C10 C9 177.6(2) . . . . ?
C11 C9 C10 O4 5.3(5) . . . . ?
C8 C9 C10 O4 -176.4(3) . . . . ?
C11 C9 C10 O3 -173.3(3) . . . . ?
C8 C9 C10 O3 5.0(5) . . . . ?
C8 C9 C11 C12 -1.8(6) . . . . ?
C10 C9 C11 C12 176.5(3) . . . . ?
C9 C11 C12 C6 1.6(6) . . . . ?
C9 C11 C12 C13 -177.9(4) . . . . ?
N1 C6 C12 C11 -179.9(4) . . . . ?
C7 C6 C12 C11 -0.5(6) . . . . ?
N1 C6 C12 C13 -0.3(5) . . . . ?
C7 C6 C12 C13 179.1(4) . . . . ?
N1 C5 C13 C14 -179.2(4) . . . . ?
C4 C5 C13 C14 0.8(7) . . . . ?
N1 C5 C13 C12 -0.3(5) . . . . ?
C4 C5 C13 C12 179.7(5) . . . . ?
C11 C12 C13 C14 -1.5(9) . . . . ?
C6 C12 C13 C14 178.9(5) . . . . ?
C11 C12 C13 C5 179.9(4) . . . . ?
C6 C12 C13 C5 0.4(5) . . . . ?
C3 C2 C14 C13 0.6(6) . . . . ?
C1 C2 C14 C13 177.7(4) . . . . ?
C5 C13 C14 C2 -1.2(6) . . . . ?
C12 C13 C14 C2 -179.6(5) . . . . ?
Cu1 O16 C15 O15 -8.3(5) . . . . ?
Cu1 O16 C15 C16 172.3(2) . . . . ?
Cu2 O15 C15 O16 1.0(5) . . . . ?
Cu2 O15 C15 C16 -179.5(2) . . . . ?
O16 C15 C16 C17 -5.7(5) . . . . ?
O15 C15 C16 C17 174.8(3) . . . . ?
O16 C15 C16 C28 177.7(3) . . . . ?
O15 C15 C16 C28 -1.8(5) . . . . ?
C28 C16 C17 C18 -1.8(6) . . . . ?
C15 C16 C17 C18 -178.4(4) . . . . ?
C16 C17 C18 C19 2.2(6) . . . . ?
C17 C18 C19 N2 178.0(4) . . . . ?
C17 C18 C19 C27 -2.1(6) . . . . ?
C20 N2 C19 C18 179.6(4) . . . . ?
C20 N2 C19 C27 -0.2(4) . . . . ?
C19 N2 C20 C21 178.7(4) . . . . ?
C19 N2 C20 C26 -0.2(4) . . . . ?
N2 C20 C21 C22 -179.1(4) . . . . ?
C26 C20 C21 C22 -0.2(6) . . . . ?
C20 C21 C22 C23 0.4(7) . . . . ?
C21 C22 C23 C25 -0.6(6) . . . . ?
C21 C22 C23 C24 -179.4(4) . . . . ?
Cu5 O12 C24 O11 -6.0(5) . . . . ?
Cu5 O12 C24 C23 175.7(2) . . . . ?
Cu6 O11 C24 O12 0.7(5) . . . . ?
Cu6 O11 C24 C23 179.0(2) . . . . ?
C25 C23 C24 O12 179.2(3) . . . . ?
C22 C23 C24 O12 -1.9(5) . . . . ?
C25 C23 C24 O11 0.8(5) . . . . ?
C22 C23 C24 O11 179.6(4) . . . . ?
C22 C23 C25 C26 0.6(6) . . . . ?
C24 C23 C25 C26 179.4(3) . . . . ?
C23 C25 C26 C20 -0.4(5) . . . . ?
C23 C25 C26 C27 177.8(4) . . . . ?
C21 C20 C26 C25 0.2(6) . . . . ?
N2 C20 C26 C25 179.3(3) . . . . ?
C21 C20 C26 C27 -178.5(4) . . . . ?
N2 C20 C26 C27 0.6(4) . . . . ?
C18 C19 C27 C28 1.8(6) . . . . ?
N2 C19 C27 C28 -178.4(3) . . . . ?
C18 C19 C27 C26 -179.2(4) . . . . ?
N2 C19 C27 C26 0.6(4) . . . . ?
C25 C26 C27 C28 -0.4(8) . . . . ?
C20 C26 C27 C28 178.0(4) . . . . ?
C25 C26 C27 C19 -179.1(4) . . . . ?
C20 C26 C27 C19 -0.7(4) . . . . ?
C17 C16 C28 C27 1.4(6) . . . . ?
C15 C16 C28 C27 178.0(3) . . . . ?
C19 C27 C28 C16 -1.4(5) . . . . ?
C26 C27 C28 C16 -180.0(4) . . . . ?
Cu1 O18 C29 O17 -2.3(5) . . . . ?
Cu1 O18 C29 C30 178.0(2) . . . . ?
Cu2 O17 C29 O18 -4.0(5) . . . . ?
Cu2 O17 C29 C30 175.8(2) . . . . ?
O18 C29 C30 C42 175.8(3) . . . . ?
O17 C29 C30 C42 -4.0(5) . . . . ?
O18 C29 C30 C31 -6.1(5) . . . . ?
O17 C29 C30 C31 174.1(3) . . . . ?
C42 C30 C31 C32 -0.2(6) . . . . ?
C29 C30 C31 C32 -178.4(4) . . . . ?
C30 C31 C32 C33 1.1(6) . . . . ?
C31 C32 C33 N3 176.6(4) . . . . ?
C31 C32 C33 C41 -1.3(7) . . . . ?
C34 N3 C33 C32 -178.5(5) . . . . ?
C34 N3 C33 C41 -0.3(5) . . . . ?
C33 N3 C34 C35 178.3(6) . . . . ?
C33 N3 C34 C40 -1.0(6) . . . . ?
N3 C34 C35 C36 -178.2(6) . . . . ?
C40 C34 C35 C36 1.1(9) . . . . ?
C34 C35 C36 C37 -0.4(10) . . . . ?
C35 C36 C37 C39 0.2(9) . . . . ?
C35 C36 C37 C38 179.6(6) . . . . ?
Cu4 O23 C38 O24 1.9(6) 3_556 . . . ?
Cu4 O23 C38 C37 -179.0(3) 3_556 . . . ?
Cu3 O24 C38 O23 1.4(6) 3_556 . . . ?
Cu3 O24 C38 C37 -177.7(3) 3_556 . . . ?
C39 C37 C38 O23 1.9(6) . . . . ?
C36 C37 C38 O23 -177.6(5) . . . . ?
C39 C37 C38 O24 -178.9(4) . . . . ?
C36 C37 C38 O24 1.6(7) . . . . ?
C36 C37 C39 C40 -0.6(7) . . . . ?
C38 C37 C39 C40 180.0(4) . . . . ?
C37 C39 C40 C34 1.2(7) . . . . ?
C37 C39 C40 C41 176.0(5) . . . . ?
N3 C34 C40 C39 177.9(4) . . . . ?
C35 C34 C40 C39 -1.5(8) . . . . ?
N3 C34 C40 C41 1.9(6) . . . . ?
C35 C34 C40 C41 -177.5(5) . . . . ?
C32 C33 C41 C42 0.7(7) . . . . ?
N3 C33 C41 C42 -177.6(4) . . . . ?
C32 C33 C41 C40 179.8(4) . . . . ?
N3 C33 C41 C40 1.4(5) . . . . ?
C39 C40 C41 C42 1.6(9) . . . . ?
C34 C40 C41 C42 176.8(5) . . . . ?
C39 C40 C41 C33 -177.2(5) . . . . ?
C34 C40 C41 C33 -2.0(5) . . . . ?
C33 C41 C42 C30 0.1(6) . . . . ?
C40 C41 C42 C30 -178.6(4) . . . . ?
C31 C30 C42 C41 -0.4(6) . . . . ?
C29 C30 C42 C41 177.8(3) . . . . ?
Cu4 O6 C43 O5 0.6(5) . . . . ?
Cu4 O6 C43 C44 -178.4(2) . . . . ?
Cu3 O5 C43 O6 -3.9(5) . . . . ?
Cu3 O5 C43 C44 175.1(2) . . . . ?
O6 C43 C44 C56 -2.0(5) . . . . ?
O5 C43 C44 C56 178.9(3) . . . . ?
O6 C43 C44 C45 176.6(3) . . . . ?
O5 C43 C44 C45 -2.5(5) . . . . ?
C56 C44 C45 C46 1.2(6) . . . . ?
C43 C44 C45 C46 -177.4(4) . . . . ?
C44 C45 C46 C47 0.7(6) . . . . ?
C48 N4 C47 C46 178.7(4) . . . . ?
C48 N4 C47 C55 -0.2(4) . . . . ?
C45 C46 C47 N4 178.6(4) . . . . ?
C45 C46 C47 C55 -2.6(6) . . . . ?
C47 N4 C48 C49 178.6(4) . . . . ?
C47 N4 C48 C54 -0.2(4) . . . . ?
N4 C48 C49 C50 -178.9(4) . . . . ?
C54 C48 C49 C50 -0.2(6) . . . . ?
C48 C49 C50 C51 -1.5(6) . . . . ?
C49 C50 C51 C53 1.9(6) . . . . ?
C49 C50 C51 C52 -178.6(4) . . . . ?
Cu6 O7 C52 O8 -3.2(5) . . . . ?
Cu6 O7 C52 C51 178.5(2) . . . . ?
Cu5 O8 C52 O7 -2.0(6) . . . . ?
Cu5 O8 C52 C51 176.3(2) . . . . ?
C53 C51 C52 O7 -2.8(5) . . . . ?
C50 C51 C52 O7 177.7(4) . . . . ?
C53 C51 C52 O8 178.7(3) . . . . ?
C50 C51 C52 O8 -0.8(5) . . . . ?
C50 C51 C53 C54 -0.4(6) . . . . ?
C52 C51 C53 C54 -180.0(3) . . . . ?
C51 C53 C54 C48 -1.3(5) . . . . ?
C51 C53 C54 C55 178.8(4) . . . . ?
C49 C48 C54 C53 1.6(6) . . . . ?
N4 C48 C54 C53 -179.4(3) . . . . ?
C49 C48 C54 C55 -178.4(4) . . . . ?
N4 C48 C54 C55 0.5(4) . . . . ?
N4 C47 C55 C56 -178.4(3) . . . . ?
C46 C47 C55 C56 2.6(6) . . . . ?
N4 C47 C55 C54 0.5(4) . . . . ?
C46 C47 C55 C54 -178.5(3) . . . . ?
C53 C54 C55 C56 -2.0(7) . . . . ?
C48 C54 C55 C56 178.1(4) . . . . ?
C53 C54 C55 C47 179.3(4) . . . . ?
C48 C54 C55 C47 -0.6(4) . . . . ?
C45 C44 C56 C55 -1.3(5) . . . . ?
C43 C44 C56 C55 177.3(3) . . . . ?
C47 C55 C56 C44 -0.6(5) . . . . ?
C54 C55 C56 C44 -179.1(4) . . . . ?
Cu5 O14 C57 O13 -7.5(5) . . . . ?
Cu5 O14 C57 C58 171.5(2) . . . . ?
Cu6 O13 C57 O14 0.3(5) . . . . ?
Cu6 O13 C57 C58 -178.7(2) . . . . ?
O14 C57 C58 C70 176.3(3) . . . . ?
O13 C57 C58 C70 -4.6(5) . . . . ?
O14 C57 C58 C59 -5.7(5) . . . . ?
O13 C57 C58 C59 173.3(3) . . . . ?
C70 C58 C59 C60 1.6(6) . . . . ?
C57 C58 C59 C60 -176.5(3) . . . . ?
C58 C59 C60 C61 0.2(6) . . . . ?
C59 C60 C61 N5 -179.5(4) . . . . ?
C59 C60 C61 C69 -3.1(6) . . . . ?
C62 N5 C61 C60 176.5(4) . . . . ?
C62 N5 C61 C69 -0.2(4) . . . . ?
C61 N5 C62 C63 -178.8(4) . . . . ?
C61 N5 C62 C68 0.3(4) . . . . ?
N5 C62 C63 C64 -178.1(4) . . . . ?
C68 C62 C63 C64 2.9(7) . . . . ?
C62 C63 C64 C65 -1.8(7) . . . . ?
C63 C64 C65 C67 0.1(6) . . . . ?
C63 C64 C65 C66 179.2(4) . . . . ?
Cu3 O20 C66 O19 7.5(5) 3_556 . . . ?
Cu3 O20 C66 C65 -171.1(2) 3_556 . . . ?
Cu4 O19 C66 O20 -4.1(5) 3_556 . . . ?
Cu4 O19 C66 C65 174.5(2) 3_556 . . . ?
C67 C65 C66 O20 -174.0(3) . . . . ?
C64 C65 C66 O20 7.0(5) . . . . ?
C67 C65 C66 O19 7.3(5) . . . . ?
C64 C65 C66 O19 -171.7(3) . . . . ?
C64 C65 C67 C68 0.5(5) . . . . ?
C66 C65 C67 C68 -178.5(3) . . . . ?
C65 C67 C68 C62 0.6(5) . . . . ?
C65 C67 C68 C69 179.0(4) . . . . ?
N5 C62 C68 C67 178.4(3) . . . . ?
C63 C62 C68 C67 -2.4(6) . . . . ?
N5 C62 C68 C69 -0.3(4) . . . . ?
C63 C62 C68 C69 178.9(4) . . . . ?
C60 C61 C69 C70 4.3(5) . . . . ?
N5 C61 C69 C70 -178.7(3) . . . . ?
C60 C61 C69 C68 -177.0(3) . . . . ?
N5 C61 C69 C68 0.0(4) . . . . ?
C67 C68 C69 C70 0.1(7) . . . . ?
C62 C68 C69 C70 178.6(4) . . . . ?
C67 C68 C69 C61 -178.4(4) . . . . ?
C62 C68 C69 C61 0.2(4) . . . . ?
C61 C69 C70 C58 -2.4(5) . . . . ?
C68 C69 C70 C58 179.3(4) . . . . ?
C59 C58 C70 C69 -0.4(5) . . . . ?
C57 C58 C70 C69 177.6(3) . . . . ?
Cu6 O9 C71 O10 -11.1(5) . . . . ?
Cu6 O9 C71 C72 166.9(2) . . . . ?
Cu5 O10 C71 O9 2.5(5) . . . . ?
Cu5 O10 C71 C72 -175.5(2) . . . . ?
O9 C71 C72 C84 6.9(5) . . . . ?
O10 C71 C72 C84 -174.8(3) . . . . ?
O9 C71 C72 C73 -169.9(4) . . . . ?
O10 C71 C72 C73 8.3(5) . . . . ?
C84 C72 C73 C74 -2.3(7) . . . . ?
C71 C72 C73 C74 174.6(4) . . . . ?
C72 C73 C74 C75 0.4(8) . . . . ?
C76 N28 C75 C74 178.7(6) . . . . ?
C76 N28 C75 C83 -1.1(7) . . . . ?
C73 C74 C75 N28 -177.6(6) . . . . ?
C73 C74 C75 C83 2.1(8) . . . . ?
C75 N28 C76 C77 176.3(8) . . . . ?
C75 N28 C76 C82 2.9(7) . . . . ?
N28 C76 C77 C78 -175.9(7) . . . . ?
C82 C76 C77 C78 -3.2(11) . . . . ?
C76 C77 C78 C79 1.7(12) . . . . ?
C77 C78 C79 C81 0.4(10) . . . . ?
C77 C78 C79 C80 178.0(6) . . . . ?
Cu2 O22 C80 O21 13.4(6) 3_556 . . . ?
Cu2 O22 C80 C79 -165.4(3) 3_556 . . . ?
Cu1 O21 C80 O22 -5.5(6) 3_556 . . . ?
Cu1 O21 C80 C79 173.3(3) 3_556 . . . ?
C78 C79 C80 O22 167.9(5) . . . . ?
C81 C79 C80 O22 -14.5(6) . . . . ?
C78 C79 C80 O21 -11.0(7) . . . . ?
C81 C79 C80 O21 166.6(4) . . . . ?
C78 C79 C81 C82 -0.9(7) . . . . ?
C80 C79 C81 C82 -178.4(4) . . . . ?
C79 C81 C82 C76 -0.7(7) . . . . ?
C79 C81 C82 C83 179.6(5) . . . . ?
N28 C76 C82 C81 176.8(5) . . . . ?
C77 C76 C82 C81 2.8(10) . . . . ?
N28 C76 C82 C83 -3.5(7) . . . . ?
C77 C76 C82 C83 -177.4(7) . . . . ?
N28 C75 C83 C84 177.1(4) . . . . ?
C74 C75 C83 C84 -2.7(8) . . . . ?
N28 C75 C83 C82 -1.1(6) . . . . ?
C74 C75 C83 C82 179.1(5) . . . . ?
C81 C82 C83 C84 4.7(10) . . . . ?
C76 C82 C83 C84 -175.0(5) . . . . ?
C81 C82 C83 C75 -177.5(6) . . . . ?
C76 C82 C83 C75 2.8(6) . . . . ?
C75 C83 C84 C72 0.7(6) . . . . ?
C82 C83 C84 C72 178.3(5) . . . . ?
C73 C72 C84 C83 1.7(6) . . . . ?
C71 C72 C84 C83 -175.2(4) . . . . ?
Cu1 O25 C85 C86 75.1(10) . . . . ?
Cu2 O26 C87 C88 80(7) . . . . ?
Cu3 O28 C90 N6 142.0(3) . . . . ?
Cu3 O28 C90 C89 -41.3(7) . . . . ?
C92 N6 C90 O28 -5.0(7) . . . . ?
C91 N6 C90 O28 169.4(4) . . . . ?
C92 N6 C90 C89 178.1(6) . . . . ?
C91 N6 C90 C89 -7.4(8) . . . . ?
Cu4 O27 C93 C94 -42(3) . . . . ?
Cu5 O29 C95 C96 -19.1(19) . . . . ?
Cu5 O29 C95 N7 -170.0(4) . . . . ?
C97 N7 C95 O29 170.4(8) . . . . ?
C98 N7 C95 O29 -24.1(19) . . . . ?
C97 N7 C95 C96 13.8(13) . . . . ?
C98 N7 C95 C96 179.3(16) . . . . ?
Cu6 O30 C99 N8 -164.9(7) . . . . ?
Cu6 O30 C99 C100 9.5(14) . . . . ?
C102 N8 C99 O30 -1.6(16) . . . . ?
C101 N8 C99 O30 166.0(11) . . . . ?
C102 N8 C99 C100 -176.4(11) . . . . ?
C101 N8 C99 C100 -8.8(18) . . . . ?

_diffrn_measured_fraction_theta_max 0.996
_diffrn_reflns_theta_full        26.00
_diffrn_measured_fraction_theta_full 0.996
_refine_diff_density_max         1.367
_refine_diff_density_min         -1.030
_refine_diff_density_rms         0.110
####################################################################### 
# 
# This file contains crystal structure data downloaded from the 
# Cambridge Structural Database (CSD) hosted by the Cambridge 
# Crystallographic Data Centre (CCDC).
# 
# Full information about CCDC data access policies and citation 
# guidelines are available at http://www.ccdc.cam.ac.uk/access/V1 
# 
# Audit and citation data items may have been added by the CCDC. 
# Please retain this information to preserve the provenance of 
# this file and to allow appropriate attribution of the data. 
# 
#######################################################################

data_2
_audit_block_doi                 10.5517/ccsqsy6
_database_code_depnum_ccdc_archive 'CCDC 736899'
loop_
_citation_id
_citation_doi
_citation_year
1 10.1021/ja901731z 2009
_audit_update_record             
;
2009-06-19 deposited with the CCDC.	2019-02-14 downloaded from the CCDC.
;

_audit_creation_method           SHELXL-97
_chemical_name_systematic        
;
?
;
_chemical_name_common            none
_chemical_melting_point          'not measured'
_chemical_formula_moiety         'C198 H162 Cu12 N18 O60'
_chemical_formula_sum            'C198 H162 Cu12 N18 O60'
_chemical_formula_weight         4515.94

loop_
_atom_type_symbol
_atom_type_description
_atom_type_scat_dispersion_real
_atom_type_scat_dispersion_imag
_atom_type_scat_source
C C 0.0033 0.0016 'International Tables Vol C Tables 4.2.6.8 and 6.1.1.4'
H H 0.0000 0.0000 'International Tables Vol C Tables 4.2.6.8 and 6.1.1.4'
N N 0.0061 0.0033 'International Tables Vol C Tables 4.2.6.8 and 6.1.1.4'
O O 0.0106 0.0060 'International Tables Vol C Tables 4.2.6.8 and 6.1.1.4'
Cu Cu 0.3201 1.2651 'International Tables Vol C Tables 4.2.6.8 and 6.1.1.4'

_symmetry_cell_setting           Hexagonal
_symmetry_space_group_name_H-M   'R -3'

loop_
_symmetry_equiv_pos_as_xyz
'x, y, z'
'-y, x-y, z'
'-x+y, -x, z'
'x+2/3, y+1/3, z+1/3'
'-y+2/3, x-y+1/3, z+1/3'
'-x+y+2/3, -x+1/3, z+1/3'
'x+1/3, y+2/3, z+2/3'
'-y+1/3, x-y+2/3, z+2/3'
'-x+y+1/3, -x+2/3, z+2/3'
'-x, -y, -z'
'y, -x+y, -z'
'x-y, x, -z'
'-x+2/3, -y+1/3, -z+1/3'
'y+2/3, -x+y+1/3, -z+1/3'
'x-y+2/3, x+1/3, -z+1/3'
'-x+1/3, -y+2/3, -z+2/3'
'y+1/3, -x+y+2/3, -z+2/3'
'x-y+1/3, x+2/3, -z+2/3'

_cell_length_a                   24.560(3)
_cell_length_b                   24.560(3)
_cell_length_c                   59.190(9)
_cell_angle_alpha                90.00
_cell_angle_beta                 90.00
_cell_angle_gamma                120.00
_cell_volume                     30920(7)
_cell_formula_units_Z            3
_cell_measurement_temperature    213(2)
_cell_measurement_reflns_used    9101
_cell_measurement_theta_min      2.575
_cell_measurement_theta_max      21.165

_exptl_crystal_description       Block
_exptl_crystal_colour            Blue-green
_exptl_crystal_size_max          0.28
_exptl_crystal_size_mid          0.26
_exptl_crystal_size_min          0.26
_exptl_crystal_density_meas      ?
_exptl_crystal_density_diffrn    0.728
_exptl_crystal_density_method    'not measured'
_exptl_crystal_F_000             6912
_exptl_absorpt_coefficient_mu    0.649
_exptl_absorpt_correction_type   Multi-scan
_exptl_absorpt_correction_T_min  0.9412
_exptl_absorpt_correction_T_max  1.0000
_exptl_absorpt_process_details   SADABS

_exptl_special_details           
;
?
;

_diffrn_ambient_temperature      213(2)
_diffrn_radiation_wavelength     0.71073
_diffrn_radiation_type           MoK\a
_diffrn_radiation_source         'fine-focus sealed tube'
_diffrn_radiation_monochromator  graphite
_diffrn_measurement_device_type  'BRUKE SMART APEX'
_diffrn_measurement_method       'omega scans'
_diffrn_detector_area_resol_mean ?
_diffrn_standards_number         ?
_diffrn_standards_interval_count ?
_diffrn_standards_interval_time  ?
_diffrn_standards_decay_%        ?
_diffrn_reflns_number            86603
_diffrn_reflns_av_R_equivalents  0.0997
_diffrn_reflns_av_sigmaI/netI    0.1112
_diffrn_reflns_limit_h_min       -30
_diffrn_reflns_limit_h_max       26
_diffrn_reflns_limit_k_min       -30
_diffrn_reflns_limit_k_max       30
_diffrn_reflns_limit_l_min       -73
_diffrn_reflns_limit_l_max       71
_diffrn_reflns_theta_min         1.03
_diffrn_reflns_theta_max         26.43
_reflns_number_total             14094
_reflns_number_gt                5714
_reflns_threshold_expression     I>2sigma(I)

_computing_data_collection       'Bruker SMART'
_computing_cell_refinement       'Bruker SMART'
_computing_data_reduction        'Bruker SAINT'
_computing_structure_solution    'SHELXS-97 (Sheldrick, 1990)'
_computing_structure_refinement  'SHELXL-97 (Sheldrick, 1997)'
_computing_molecular_graphics    'Bruker SHELXTL'
_computing_publication_material  'Bruker SHELXTL'

_refine_special_details          
;
Refinement of F^2^ against ALL reflections. The weighted R-factor wR and
goodness of fit S are based on F^2^, conventional R-factors R are based
on F, with F set to zero for negative F^2^. The threshold expression of
F^2^ > 2sigma(F^2^) is used only for calculating R-factors(gt) etc. and is
not relevant to the choice of reflections for refinement. R-factors based
on F^2^ are statistically about twice as large as those based on F, and R-
factors based on ALL data will be even larger.
;

_refine_ls_structure_factor_coef Fsqd
_refine_ls_matrix_type           full
_refine_ls_weighting_scheme      calc
_refine_ls_weighting_details     
'calc w=1/[\s^2^(Fo^2^)+(0.1099P)^2^] where P=(Fo^2^+2Fc^2^)/3'
_atom_sites_solution_primary     direct
_atom_sites_solution_secondary   difmap
_atom_sites_solution_hydrogens   geom
_refine_ls_hydrogen_treatment    constr
_refine_ls_extinction_method     none
_refine_ls_extinction_coef       ?
_refine_ls_number_reflns         14094
_refine_ls_number_parameters     401
_refine_ls_number_restraints     16
_refine_ls_R_factor_all          0.1457
_refine_ls_R_factor_gt           0.0828
_refine_ls_wR_factor_ref         0.2627
_refine_ls_wR_factor_gt          0.2459
_refine_ls_goodness_of_fit_ref   1.110
_refine_ls_restrained_S_all      1.117
_refine_ls_shift/su_max          0.001
_refine_ls_shift/su_mean         0.000

loop_
_atom_site_label
_atom_site_type_symbol
_atom_site_fract_x
_atom_site_fract_y
_atom_site_fract_z
_atom_site_U_iso_or_equiv
_atom_site_adp_type
_atom_site_occupancy
_atom_site_symmetry_multiplicity
_atom_site_calc_flag
_atom_site_refinement_flags
_atom_site_disorder_assembly
_atom_site_disorder_group
Cu1 Cu 0.50343(3) 1.03302(3) 0.072086(11) 0.0619(3) Uani 1 1 d . . .
O1 O 0.41612(17) 0.97161(17) 0.11448(6) 0.0656(10) Uani 1 1 d . . .
N1 N 0.2776(3) 1.0999(3) 0.15790(10) 0.104(2) Uani 1 1 d . . .
H1A H 0.2696 1.1304 0.1562 0.125 Uiso 1 1 calc R . .
C1 C 0.4201(3) 1.0225(3) 0.10762(9) 0.0648(16) Uani 1 1 d . . .
Cu2 Cu 0.45695(3) 0.93240(3) 0.097156(10) 0.0571(2) Uani 1 1 d . . .
O2 O 0.45251(18) 1.05654(19) 0.09118(6) 0.0722(11) Uani 1 1 d . . .
N2 N 0.1638(3) 0.8147(3) 0.00768(10) 0.110(2) Uani 1 1 d . . .
H2A H 0.1505 0.8264 -0.0040 0.132 Uiso 1 1 calc R . .
C2 C 0.3829(3) 1.0444(3) 0.12042(10) 0.0634(15) Uani 1 1 d . . .
O3 O 0.38652(17) 0.89935(16) 0.07567(6) 0.0636(10) Uani 1 1 d . . .
N3 N 0.5604(10) 1.1814(8) 0.0242(2) 0.586(9) Uiso 1 1 d D . .
C3 C 0.3828(3) 1.0992(3) 0.11422(11) 0.0798(19) Uani 1 1 d . . .
H3A H 0.4074 1.1221 0.1018 0.096 Uiso 1 1 calc R . .
O4 O 0.42930(18) 0.98539(17) 0.05253(6) 0.0700(11) Uani 1 1 d . . .
C4 C 0.3500(3) 1.1208(3) 0.12485(12) 0.095(2) Uani 1 1 d . . .
H4A H 0.3503 1.1574 0.1199 0.115 Uiso 1 1 calc R . .
O5 O 0.09369(16) 0.59663(16) 0.07668(6) 0.0623(10) Uani 1 1 d . . .
C5 C 0.3142(3) 1.0869(3) 0.14397(12) 0.0849(19) Uani 1 1 d . . .
O6 O 0.00346(17) 0.55147(18) 0.05593(6) 0.0727(11) Uani 1 1 d . . .
C6 C 0.3146(3) 1.0321(3) 0.15162(10) 0.0691(16) Uani 1 1 d . . .
O7 O 0.22014(17) 0.86607(17) 0.21780(6) 0.0626(10) Uani 1 1 d . . .
C7 C 0.3495(3) 1.0122(3) 0.13984(9) 0.0622(15) Uani 1 1 d . . .
H7A H 0.3511 0.9767 0.1448 0.075 Uiso 1 1 calc R . .
O8 O 0.16848(19) 0.9039(2) 0.23829(7) 0.0760(11) Uani 1 1 d . . .
C8 C 0.2598(3) 0.9640(3) 0.18725(9) 0.0608(14) Uani 1 1 d . . .
H8A H 0.2741 0.9353 0.1854 0.073 Uiso 1 1 calc R . .
O9 O 0.54315(19) 1.11671(18) 0.05159(7) 0.0810(12) Uani 1 1 d D . .
C9 C 0.2772(3) 1.0121(3) 0.17201(10) 0.0681(16) Uani 1 1 d . . .
O10 O 0.4190(2) 0.8478(2) 0.11694(8) 0.1062(16) Uani 1 1 d D . .
H101 H 0.4060 0.8533 0.1292 0.159 Uiso 1 1 calc RD . .
H102 H 0.413(4) 0.8123(12) 0.1122(8) 0.159 Uiso 1 1 d D . .
C10 C 0.2553(4) 1.0551(3) 0.17548(12) 0.090(2) Uani 1 1 d . . .
C11 C 0.2171(3) 1.0501(3) 0.19349(12) 0.093(2) Uani 1 1 d . . .
H11A H 0.2027 1.0788 0.1954 0.111 Uiso 1 1 calc R . .
C12 C 0.2008(3) 1.0011(3) 0.20859(12) 0.086(2) Uani 1 1 d . . .
H12A H 0.1757 0.9969 0.2212 0.103 Uiso 1 1 calc R . .
C13 C 0.2215(3) 0.9574(3) 0.20524(11) 0.0727(17) Uani 1 1 d . . .
C14 C 0.2020(3) 0.9039(3) 0.22203(10) 0.0639(15) Uani 1 1 d . . .
C15 C 0.3858(3) 0.9308(3) 0.05833(9) 0.0604(15) Uani 1 1 d . . .
C16 C 0.3291(3) 0.9000(3) 0.04408(9) 0.0607(15) Uani 1 1 d . . .
C17 C 0.3223(3) 0.9326(3) 0.02523(10) 0.0808(19) Uani 1 1 d . . .
H17A H 0.3558 0.9731 0.0219 0.097 Uiso 1 1 calc R . .
C18 C 0.2711(3) 0.9091(3) 0.01195(11) 0.091(2) Uani 1 1 d . . .
H18A H 0.2689 0.9320 -0.0004 0.110 Uiso 1 1 calc R . .
C19 C 0.2209(4) 0.8487(3) 0.01721(11) 0.087(2) Uani 1 1 d . . .
C20 C 0.2264(3) 0.8141(3) 0.03607(9) 0.0653(15) Uani 1 1 d . . .
C21 C 0.2803(3) 0.8417(3) 0.04927(9) 0.0611(15) Uani 1 1 d . . .
H21A H 0.2832 0.8200 0.0619 0.073 Uiso 1 1 calc R . .
C22 C 0.1427(3) 0.7041(3) 0.05085(9) 0.0662(16) Uani 1 1 d . . .
H22A H 0.1669 0.7023 0.0629 0.079 Uiso 1 1 calc R . .
C23 C 0.1673(3) 0.7571(3) 0.03725(10) 0.0673(16) Uani 1 1 d . . .
C24 C 0.1298(3) 0.7592(3) 0.01894(13) 0.094(2) Uani 1 1 d . . .
C25 C 0.0700(3) 0.7099(3) 0.01508(12) 0.098(2) Uani 1 1 d . . .
H25A H 0.0448 0.7118 0.0035 0.118 Uiso 1 1 calc R . .
C26 C 0.0481(3) 0.6576(3) 0.02871(11) 0.084(2) Uani 1 1 d . . .
H26A H 0.0082 0.6230 0.0258 0.101 Uiso 1 1 calc R . .
C27 C 0.0834(3) 0.6540(3) 0.04698(10) 0.0696(16) Uani 1 1 d . . .
C28 C 0.0587(3) 0.5957(3) 0.06128(9) 0.0635(15) Uani 1 1 d . . .
C29 C 0.5226(10) 1.1457(12) 0.0405(4) 0.586(9) Uiso 1 1 d D . .
H29A H 0.4834 1.1424 0.0434 0.703 Uiso 1 1 calc R . .
C30 C 0.5767(12) 1.2413(9) 0.0177(6) 0.586(9) Uiso 1 1 d D . .
H30A H 0.5990 1.2508 0.0033 0.703 Uiso 1 1 calc R . .
H30B H 0.6055 1.2711 0.0290 0.703 Uiso 1 1 calc R . .
C31 C 0.5198(16) 1.2502(13) 0.0153(6) 0.586(9) Uiso 1 1 d D . .
H31A H 0.5336 1.2931 0.0108 0.879 Uiso 1 1 calc R . .
H31B H 0.4979 1.2415 0.0296 0.879 Uiso 1 1 calc R . .
H31C H 0.4916 1.2215 0.0039 0.879 Uiso 1 1 calc R . .
C32 C 0.6053(10) 1.1688(14) 0.0138(4) 0.586(9) Uiso 1 1 d D . .
H32A H 0.6080 1.1354 0.0219 0.703 Uiso 1 1 calc R . .
H32B H 0.6470 1.2067 0.0137 0.703 Uiso 1 1 calc R . .
C33 C 0.5812(16) 1.1478(17) -0.0106(4) 0.586(9) Uiso 1 1 d D . .
H33A H 0.6080 1.1351 -0.0182 0.879 Uiso 1 1 calc R . .
H33B H 0.5820 1.1825 -0.0187 0.879 Uiso 1 1 calc R . .
H33C H 0.5385 1.1127 -0.0101 0.879 Uiso 1 1 calc R . .

loop_
_atom_site_aniso_label
_atom_site_aniso_U_11
_atom_site_aniso_U_22
_atom_site_aniso_U_33
_atom_site_aniso_U_23
_atom_site_aniso_U_13
_atom_site_aniso_U_12
Cu1 0.0688(5) 0.0543(4) 0.0589(5) 0.0153(3) 0.0077(3) 0.0280(4)
O1 0.075(3) 0.055(2) 0.063(2) 0.0186(19) 0.0100(19) 0.030(2)
N1 0.128(5) 0.086(4) 0.127(5) 0.032(4) 0.053(4) 0.076(4)
C1 0.057(4) 0.060(4) 0.057(4) 0.005(3) -0.005(3) 0.014(3)
Cu2 0.0636(5) 0.0535(4) 0.0519(4) 0.0120(3) 0.0054(3) 0.0276(4)
O2 0.075(3) 0.080(3) 0.059(2) 0.031(2) 0.024(2) 0.038(2)
N2 0.121(5) 0.067(4) 0.104(4) 0.021(3) -0.064(4) 0.019(4)
C2 0.062(4) 0.059(4) 0.068(4) 0.006(3) 0.003(3) 0.029(3)
O3 0.082(3) 0.057(2) 0.053(2) 0.0109(19) 0.0024(19) 0.035(2)
C3 0.095(5) 0.076(4) 0.086(5) 0.029(4) 0.026(4) 0.056(4)
O4 0.079(3) 0.051(2) 0.061(2) 0.0144(19) 0.010(2) 0.019(2)
C4 0.114(6) 0.080(5) 0.105(6) 0.033(4) 0.029(5) 0.058(5)
O5 0.054(2) 0.066(2) 0.056(2) -0.0044(18) -0.0203(18) 0.0226(19)
C5 0.082(5) 0.085(5) 0.089(5) 0.016(4) 0.023(4) 0.044(4)
O6 0.053(2) 0.068(3) 0.085(3) 0.001(2) -0.022(2) 0.020(2)
C6 0.083(4) 0.061(4) 0.079(4) 0.006(3) 0.010(3) 0.047(4)
O7 0.071(2) 0.067(2) 0.064(2) -0.0087(19) 0.0060(19) 0.045(2)
C7 0.070(4) 0.059(4) 0.056(3) 0.010(3) 0.008(3) 0.031(3)
O8 0.075(3) 0.096(3) 0.069(3) 0.007(2) 0.023(2) 0.052(2)
C8 0.073(4) 0.057(4) 0.066(4) 0.007(3) 0.016(3) 0.042(3)
O9 0.096(3) 0.065(3) 0.081(3) 0.032(2) 0.022(2) 0.039(2)
C9 0.077(4) 0.063(4) 0.079(4) 0.001(3) 0.005(3) 0.046(3)
O10 0.120(4) 0.079(3) 0.120(4) 0.045(3) 0.022(3) 0.050(3)
C10 0.104(5) 0.080(5) 0.088(5) 0.009(4) 0.018(4) 0.047(4)
C11 0.105(6) 0.086(5) 0.107(6) 0.005(4) 0.027(5) 0.063(5)
C12 0.098(5) 0.088(5) 0.096(5) 0.015(4) 0.039(4) 0.064(4)
C13 0.066(4) 0.065(4) 0.083(4) 0.004(3) 0.016(3) 0.030(3)
C14 0.063(4) 0.065(4) 0.060(4) 0.001(3) 0.009(3) 0.028(3)
C15 0.065(4) 0.061(4) 0.055(4) 0.008(3) 0.016(3) 0.031(3)
C16 0.078(4) 0.051(3) 0.048(3) 0.008(3) -0.004(3) 0.028(3)
C17 0.088(5) 0.055(4) 0.076(4) 0.026(3) -0.002(4) 0.017(3)
C18 0.101(5) 0.071(5) 0.078(5) 0.021(4) -0.026(4) 0.025(4)
C19 0.108(6) 0.072(5) 0.063(4) 0.017(3) -0.012(4) 0.032(4)
C20 0.073(4) 0.064(4) 0.056(4) 0.005(3) -0.011(3) 0.032(3)
C21 0.069(4) 0.062(4) 0.051(3) 0.012(3) -0.005(3) 0.032(3)
C22 0.069(4) 0.059(4) 0.062(4) 0.001(3) -0.021(3) 0.026(3)
C23 0.072(4) 0.060(4) 0.062(4) 0.004(3) -0.017(3) 0.027(3)
C24 0.088(5) 0.063(4) 0.110(6) 0.002(4) -0.046(4) 0.023(4)
C25 0.097(5) 0.078(5) 0.102(5) 0.010(4) -0.051(4) 0.031(4)
C26 0.060(4) 0.077(4) 0.094(5) 0.004(4) -0.034(4) 0.019(3)
C27 0.061(4) 0.064(4) 0.067(4) 0.002(3) -0.014(3) 0.018(3)
C28 0.059(4) 0.067(4) 0.055(4) -0.005(3) -0.009(3) 0.024(3)

_geom_special_details            
;
All esds (except the esd in the dihedral angle between two l.s. planes)
are estimated using the full covariance matrix. The cell esds are taken
into account individually in the estimation of esds in distances, angles
and torsion angles; correlations between esds in cell parameters are only
used when they are defined by crystal symmetry. An approximate (isotropic)
treatment of cell esds is used for estimating esds involving l.s. planes.
;

loop_
_geom_bond_atom_site_label_1
_geom_bond_atom_site_label_2
_geom_bond_distance
_geom_bond_site_symmetry_2
_geom_bond_publ_flag
Cu1 O8 1.972(4) 14_455 ?
Cu1 O4 1.973(4) . ?
Cu1 O2 1.974(4) . ?
Cu1 O6 1.974(4) 3_565 ?
Cu1 O9 2.155(3) . ?
Cu1 Cu2 2.6060(9) . ?
O1 C1 1.271(6) . ?
O1 Cu2 1.988(4) . ?
N1 C5 1.370(8) . ?
N1 C10 1.411(8) . ?
N1 H1A 0.8700 . ?
C1 O2 1.270(6) . ?
C1 C2 1.480(8) . ?
Cu2 O7 1.957(4) 14_455 ?
Cu2 O3 1.966(4) . ?
Cu2 O5 1.970(4) 3_565 ?
Cu2 O10 2.150(4) . ?
N2 C19 1.345(8) . ?
N2 C24 1.365(8) . ?
N2 H2A 0.8700 . ?
C2 C3 1.398(8) . ?
C2 C7 1.403(7) . ?
O3 C15 1.290(6) . ?
N3 C29 1.321(8) . ?
N3 C30 1.373(9) . ?
N3 C32 1.425(9) . ?
C3 C4 1.324(8) . ?
C3 H3A 0.9400 . ?
O4 C15 1.275(6) . ?
C4 C5 1.419(8) . ?
C4 H4A 0.9400 . ?
O5 C28 1.245(6) . ?
O5 Cu2 1.970(4) 2_665 ?
C5 C6 1.425(8) . ?
O6 C28 1.283(6) . ?
O6 Cu1 1.974(4) 2_665 ?
C6 C7 1.369(7) . ?
C6 C9 1.446(8) . ?
O7 C14 1.240(6) . ?
O7 Cu2 1.957(4) 15 ?
C7 H7A 0.9400 . ?
O8 C14 1.267(6) . ?
O8 Cu1 1.972(4) 15 ?
C8 C9 1.373(7) . ?
C8 C13 1.375(7) . ?
C8 H8A 0.9400 . ?
O9 C29 1.247(10) . ?
C9 C10 1.418(8) . ?
O10 H101 0.8300 . ?
O10 H102 0.854(10) . ?
C10 C11 1.386(9) . ?
C11 C12 1.388(8) . ?
C11 H11A 0.9400 . ?
C12 C13 1.412(8) . ?
C12 H12A 0.9400 . ?
C13 C14 1.522(8) . ?
C15 C16 1.473(7) . ?
C16 C21 1.366(7) . ?
C16 C17 1.431(7) . ?
C17 C18 1.344(8) . ?
C17 H17A 0.9400 . ?
C18 C19 1.411(8) . ?
C18 H18A 0.9400 . ?
C19 C20 1.449(8) . ?
C20 C21 1.387(7) . ?
C20 C23 1.428(8) . ?
C21 H21A 0.9400 . ?
C22 C27 1.378(7) . ?
C22 C23 1.387(7) . ?
C22 H22A 0.9400 . ?
C23 C24 1.440(8) . ?
C24 C25 1.378(8) . ?
C25 C26 1.377(8) . ?
C25 H25A 0.9400 . ?
C26 C27 1.417(7) . ?
C26 H26A 0.9400 . ?
C27 C28 1.504(8) . ?
C29 H29A 0.9400 . ?
C30 C31 1.526(10) . ?
C30 H30A 0.9800 . ?
C30 H30B 0.9800 . ?
C31 H31A 0.9700 . ?
C31 H31B 0.9700 . ?
C31 H31C 0.9700 . ?
C32 C33 1.547(10) . ?
C32 H32A 0.9800 . ?
C32 H32B 0.9800 . ?
C33 H33A 0.9700 . ?
C33 H33B 0.9700 . ?
C33 H33C 0.9700 . ?

loop_
_geom_angle_atom_site_label_1
_geom_angle_atom_site_label_2
_geom_angle_atom_site_label_3
_geom_angle
_geom_angle_site_symmetry_1
_geom_angle_site_symmetry_3
_geom_angle_publ_flag
O8 Cu1 O4 170.58(16) 14_455 . ?
O8 Cu1 O2 89.22(17) 14_455 . ?
O4 Cu1 O2 88.72(16) . . ?
O8 Cu1 O6 90.32(17) 14_455 3_565 ?
O4 Cu1 O6 90.20(16) . 3_565 ?
O2 Cu1 O6 170.53(15) . 3_565 ?
O8 Cu1 O9 94.83(16) 14_455 . ?
O4 Cu1 O9 94.51(16) . . ?
O2 Cu1 O9 95.40(15) . . ?
O6 Cu1 O9 94.07(15) 3_565 . ?
O8 Cu1 Cu2 84.39(11) 14_455 . ?
O4 Cu1 Cu2 86.28(11) . . ?
O2 Cu1 Cu2 84.85(11) . . ?
O6 Cu1 Cu2 85.68(11) 3_565 . ?
O9 Cu1 Cu2 179.17(12) . . ?
C1 O1 Cu2 120.1(4) . . ?
C5 N1 C10 107.8(5) . . ?
C5 N1 H1A 126.1 . . ?
C10 N1 H1A 126.1 . . ?
O2 C1 O1 127.4(6) . . ?
O2 C1 C2 116.8(5) . . ?
O1 C1 C2 115.8(5) . . ?
O7 Cu2 O3 169.80(15) 14_455 . ?
O7 Cu2 O5 90.11(15) 14_455 3_565 ?
O3 Cu2 O5 89.82(15) . 3_565 ?
O7 Cu2 O1 89.43(15) 14_455 . ?
O3 Cu2 O1 88.92(15) . . ?
O5 Cu2 O1 170.23(15) 3_565 . ?
O7 Cu2 O10 95.20(18) 14_455 . ?
O3 Cu2 O10 94.99(18) . . ?
O5 Cu2 O10 93.58(17) 3_565 . ?
O1 Cu2 O10 96.18(17) . . ?
O7 Cu2 Cu1 85.52(10) 14_455 . ?
O3 Cu2 Cu1 84.32(10) . . ?
O5 Cu2 Cu1 84.69(10) 3_565 . ?
O1 Cu2 Cu1 85.54(10) . . ?
O10 Cu2 Cu1 178.14(14) . . ?
C1 O2 Cu1 121.7(4) . . ?
C19 N2 C24 110.0(5) . . ?
C19 N2 H2A 125.0 . . ?
C24 N2 H2A 125.0 . . ?
C3 C2 C7 118.4(6) . . ?
C3 C2 C1 121.0(5) . . ?
C7 C2 C1 120.6(5) . . ?
C15 O3 Cu2 122.7(4) . . ?
C29 N3 C30 130.2(10) . . ?
C29 N3 C32 122.4(9) . . ?
C30 N3 C32 105.6(8) . . ?
C4 C3 C2 123.8(6) . . ?
C4 C3 H3A 118.1 . . ?
C2 C3 H3A 118.1 . . ?
C15 O4 Cu1 120.4(4) . . ?
C3 C4 C5 117.8(6) . . ?
C3 C4 H4A 121.1 . . ?
C5 C4 H4A 121.1 . . ?
C28 O5 Cu2 121.5(4) . 2_665 ?
N1 C5 C4 129.0(7) . . ?
N1 C5 C6 110.1(6) . . ?
C4 C5 C6 120.9(6) . . ?
C28 O6 Cu1 119.3(4) . 2_665 ?
C7 C6 C5 118.4(6) . . ?
C7 C6 C9 135.1(5) . . ?
C5 C6 C9 106.4(5) . . ?
C14 O7 Cu2 120.3(4) . 15 ?
C6 C7 C2 120.7(5) . . ?
C6 C7 H7A 119.7 . . ?
C2 C7 H7A 119.7 . . ?
C14 O8 Cu1 120.3(4) . 15 ?
C9 C8 C13 120.8(5) . . ?
C9 C8 H8A 119.6 . . ?
C13 C8 H8A 119.6 . . ?
C29 O9 Cu1 136.2(10) . . ?
C8 C9 C10 118.3(6) . . ?
C8 C9 C6 135.4(5) . . ?
C10 C9 C6 106.3(5) . . ?
Cu2 O10 H101 109.5 . . ?
Cu2 O10 H102 125(2) . . ?
H101 O10 H102 124.5 . . ?
C11 C10 N1 128.2(7) . . ?
C11 C10 C9 122.6(7) . . ?
N1 C10 C9 109.3(6) . . ?
C10 C11 C12 117.4(6) . . ?
C10 C11 H11A 121.3 . . ?
C12 C11 H11A 121.3 . . ?
C11 C12 C13 120.8(6) . . ?
C11 C12 H12A 119.6 . . ?
C13 C12 H12A 119.6 . . ?
C8 C13 C12 120.2(6) . . ?
C8 C13 C14 120.7(5) . . ?
C12 C13 C14 119.2(5) . . ?
O7 C14 O8 129.1(6) . . ?
O7 C14 C13 116.1(5) . . ?
O8 C14 C13 114.8(5) . . ?
O4 C15 O3 126.0(5) . . ?
O4 C15 C16 117.8(5) . . ?
O3 C15 C16 116.2(5) . . ?
C21 C16 C17 118.5(5) . . ?
C21 C16 C15 121.2(5) . . ?
C17 C16 C15 120.2(5) . . ?
C18 C17 C16 124.1(6) . . ?
C18 C17 H17A 118.0 . . ?
C16 C17 H17A 118.0 . . ?
C17 C18 C19 117.5(6) . . ?
C17 C18 H18A 121.3 . . ?
C19 C18 H18A 121.3 . . ?
N2 C19 C18 130.7(6) . . ?
N2 C19 C20 109.5(6) . . ?
C18 C19 C20 119.8(6) . . ?
C21 C20 C23 134.8(5) . . ?
C21 C20 C19 119.7(6) . . ?
C23 C20 C19 105.4(5) . . ?
C16 C21 C20 120.5(5) . . ?
C16 C21 H21A 119.8 . . ?
C20 C21 H21A 119.8 . . ?
C27 C22 C23 120.8(5) . . ?
C27 C22 H22A 119.6 . . ?
C23 C22 H22A 119.6 . . ?
C22 C23 C20 134.5(5) . . ?
C22 C23 C24 119.0(6) . . ?
C20 C23 C24 106.5(5) . . ?
N2 C24 C25 130.4(6) . . ?
N2 C24 C23 108.7(5) . . ?
C25 C24 C23 121.0(6) . . ?
C26 C25 C24 117.9(6) . . ?
C26 C25 H25A 121.0 . . ?
C24 C25 H25A 121.0 . . ?
C25 C26 C27 122.8(6) . . ?
C25 C26 H26A 118.6 . . ?
C27 C26 H26A 118.6 . . ?
C22 C27 C26 118.5(5) . . ?
C22 C27 C28 120.0(5) . . ?
C26 C27 C28 121.4(5) . . ?
O5 C28 O6 128.6(5) . . ?
O5 C28 C27 116.6(5) . . ?
O6 C28 C27 114.8(5) . . ?
O9 C29 N3 114.3(11) . . ?
O9 C29 H29A 122.8 . . ?
N3 C29 H29A 122.8 . . ?
N3 C30 C31 112.5(10) . . ?
N3 C30 H30A 109.1 . . ?
C31 C30 H30A 109.1 . . ?
N3 C30 H30B 109.1 . . ?
C31 C30 H30B 109.1 . . ?
H30A C30 H30B 107.8 . . ?
C30 C31 H31A 109.5 . . ?
C30 C31 H31B 109.5 . . ?
H31A C31 H31B 109.5 . . ?
C30 C31 H31C 109.5 . . ?
H31A C31 H31C 109.5 . . ?
H31B C31 H31C 109.5 . . ?
N3 C32 C33 105.4(9) . . ?
N3 C32 H32A 110.7 . . ?
C33 C32 H32A 110.7 . . ?
N3 C32 H32B 110.7 . . ?
C33 C32 H32B 110.7 . . ?
H32A C32 H32B 108.8 . . ?
C32 C33 H33A 109.5 . . ?
C32 C33 H33B 109.5 . . ?
H33A C33 H33B 109.5 . . ?
C32 C33 H33C 109.5 . . ?
H33A C33 H33C 109.5 . . ?
H33B C33 H33C 109.5 . . ?

loop_
_geom_torsion_atom_site_label_1
_geom_torsion_atom_site_label_2
_geom_torsion_atom_site_label_3
_geom_torsion_atom_site_label_4
_geom_torsion
_geom_torsion_site_symmetry_1
_geom_torsion_site_symmetry_2
_geom_torsion_site_symmetry_3
_geom_torsion_site_symmetry_4
_geom_torsion_publ_flag
Cu2 O1 C1 O2 -6.2(8) . . . . ?
Cu2 O1 C1 C2 174.1(3) . . . . ?
C1 O1 Cu2 O7 91.4(4) . . . 14_455 ?
C1 O1 Cu2 O3 -78.5(4) . . . . ?
C1 O1 Cu2 O5 4.1(11) . . . 3_565 ?
C1 O1 Cu2 O10 -173.4(4) . . . . ?
C1 O1 Cu2 Cu1 5.8(4) . . . . ?
O8 Cu1 Cu2 O7 -3.63(16) 14_455 . . 14_455 ?
O4 Cu1 Cu2 O7 177.60(16) . . . 14_455 ?
O2 Cu1 Cu2 O7 -93.35(16) . . . 14_455 ?
O6 Cu1 Cu2 O7 87.12(16) 3_565 . . 14_455 ?
O9 Cu1 Cu2 O7 14(9) . . . 14_455 ?
O8 Cu1 Cu2 O3 175.50(16) 14_455 . . . ?
O4 Cu1 Cu2 O3 -3.27(15) . . . . ?
O2 Cu1 Cu2 O3 85.78(16) . . . . ?
O6 Cu1 Cu2 O3 -93.75(16) 3_565 . . . ?
O9 Cu1 Cu2 O3 -166(100) . . . . ?
O8 Cu1 Cu2 O5 -94.15(16) 14_455 . . 3_565 ?
O4 Cu1 Cu2 O5 87.08(16) . . . 3_565 ?
O2 Cu1 Cu2 O5 176.13(16) . . . 3_565 ?
O6 Cu1 Cu2 O5 -3.40(16) 3_565 . . 3_565 ?
O9 Cu1 Cu2 O5 -76(9) . . . 3_565 ?
O8 Cu1 Cu2 O1 86.15(16) 14_455 . . . ?
O4 Cu1 Cu2 O1 -92.62(16) . . . . ?
O2 Cu1 Cu2 O1 -3.57(16) . . . . ?
O6 Cu1 Cu2 O1 176.90(16) 3_565 . . . ?
O9 Cu1 Cu2 O1 104(9) . . . . ?
O8 Cu1 Cu2 O10 -116(5) 14_455 . . . ?
O4 Cu1 Cu2 O10 65(5) . . . . ?
O2 Cu1 Cu2 O10 154(5) . . . . ?
O6 Cu1 Cu2 O10 -26(5) 3_565 . . . ?
O9 Cu1 Cu2 O10 -98(10) . . . . ?
O1 C1 O2 Cu1 1.5(8) . . . . ?
C2 C1 O2 Cu1 -178.8(3) . . . . ?
O8 Cu1 O2 C1 -82.0(4) 14_455 . . . ?
O4 Cu1 O2 C1 88.8(4) . . . . ?
O6 Cu1 O2 C1 5.3(13) 3_565 . . . ?
O9 Cu1 O2 C1 -176.8(4) . . . . ?
Cu2 Cu1 O2 C1 2.4(4) . . . . ?
O2 C1 C2 C3 1.3(8) . . . . ?
O1 C1 C2 C3 -179.0(5) . . . . ?
O2 C1 C2 C7 -175.2(5) . . . . ?
O1 C1 C2 C7 4.5(8) . . . . ?
O7 Cu2 O3 C15 7.2(11) 14_455 . . . ?
O5 Cu2 O3 C15 -82.4(4) 3_565 . . . ?
O1 Cu2 O3 C15 87.9(4) . . . . ?
O10 Cu2 O3 C15 -176.0(4) . . . . ?
Cu1 Cu2 O3 C15 2.2(4) . . . . ?
C7 C2 C3 C4 -4.1(10) . . . . ?
C1 C2 C3 C4 179.3(6) . . . . ?
O8 Cu1 O4 C15 -2.1(12) 14_455 . . . ?
O2 Cu1 O4 C15 -79.6(4) . . . . ?
O6 Cu1 O4 C15 91.0(4) 3_565 . . . ?
O9 Cu1 O4 C15 -174.9(4) . . . . ?
Cu2 Cu1 O4 C15 5.4(4) . . . . ?
C2 C3 C4 C5 1.7(11) . . . . ?
C10 N1 C5 C4 -175.8(7) . . . . ?
C10 N1 C5 C6 2.3(8) . . . . ?
C3 C4 C5 N1 178.9(7) . . . . ?
C3 C4 C5 C6 1.0(11) . . . . ?
N1 C5 C6 C7 -179.3(6) . . . . ?
C4 C5 C6 C7 -1.1(10) . . . . ?
N1 C5 C6 C9 -2.0(8) . . . . ?
C4 C5 C6 C9 176.3(6) . . . . ?
C5 C6 C7 C2 -1.4(9) . . . . ?
C9 C6 C7 C2 -177.8(6) . . . . ?
C3 C2 C7 C6 3.9(9) . . . . ?
C1 C2 C7 C6 -179.5(5) . . . . ?
O8 Cu1 O9 C29 -141(2) 14_455 . . . ?
O4 Cu1 O9 C29 38(2) . . . . ?
O2 Cu1 O9 C29 -51(2) . . . . ?
O6 Cu1 O9 C29 128(2) 3_565 . . . ?
Cu2 Cu1 O9 C29 -159(93) . . . . ?
C13 C8 C9 C10 0.7(9) . . . . ?
C13 C8 C9 C6 -178.7(7) . . . . ?
C7 C6 C9 C8 -2.9(13) . . . . ?
C5 C6 C9 C8 -179.6(7) . . . . ?
C7 C6 C9 C10 177.6(7) . . . . ?
C5 C6 C9 C10 0.9(7) . . . . ?
C5 N1 C10 C11 179.5(7) . . . . ?
C5 N1 C10 C9 -1.7(8) . . . . ?
C8 C9 C10 C11 -0.3(10) . . . . ?
C6 C9 C10 C11 179.3(7) . . . . ?
C8 C9 C10 N1 -179.1(6) . . . . ?
C6 C9 C10 N1 0.4(7) . . . . ?
N1 C10 C11 C12 179.3(7) . . . . ?
C9 C10 C11 C12 0.6(11) . . . . ?
C10 C11 C12 C13 -1.5(11) . . . . ?
C9 C8 C13 C12 -1.5(9) . . . . ?
C9 C8 C13 C14 179.7(5) . . . . ?
C11 C12 C13 C8 1.9(10) . . . . ?
C11 C12 C13 C14 -179.3(6) . . . . ?
Cu2 O7 C14 O8 5.3(8) 15 . . . ?
Cu2 O7 C14 C13 -173.6(4) 15 . . . ?
Cu1 O8 C14 O7 -0.5(8) 15 . . . ?
Cu1 O8 C14 C13 178.4(4) 15 . . . ?
C8 C13 C14 O7 -3.2(8) . . . . ?
C12 C13 C14 O7 178.0(6) . . . . ?
C8 C13 C14 O8 177.7(5) . . . . ?
C12 C13 C14 O8 -1.1(8) . . . . ?
Cu1 O4 C15 O3 -5.6(7) . . . . ?
Cu1 O4 C15 C16 174.6(4) . . . . ?
Cu2 O3 C15 O4 1.3(7) . . . . ?
Cu2 O3 C15 C16 -178.9(3) . . . . ?
O4 C15 C16 C21 -179.6(5) . . . . ?
O3 C15 C16 C21 0.6(8) . . . . ?
O4 C15 C16 C17 -3.8(8) . . . . ?
O3 C15 C16 C17 176.4(5) . . . . ?
C21 C16 C17 C18 -1.2(10) . . . . ?
C15 C16 C17 C18 -177.1(6) . . . . ?
C16 C17 C18 C19 0.8(11) . . . . ?
C24 N2 C19 C18 -178.1(8) . . . . ?
C24 N2 C19 C20 0.4(9) . . . . ?
C17 C18 C19 N2 177.1(8) . . . . ?
C17 C18 C19 C20 -1.3(11) . . . . ?
N2 C19 C20 C21 -176.5(6) . . . . ?
C18 C19 C20 C21 2.2(10) . . . . ?
N2 C19 C20 C23 -1.1(8) . . . . ?
C18 C19 C20 C23 177.6(6) . . . . ?
C17 C16 C21 C20 2.1(8) . . . . ?
C15 C16 C21 C20 177.9(5) . . . . ?
C23 C20 C21 C16 -176.4(6) . . . . ?
C19 C20 C21 C16 -2.6(9) . . . . ?
C27 C22 C23 C20 -176.5(6) . . . . ?
C27 C22 C23 C24 0.0(9) . . . . ?
C21 C20 C23 C22 -7.4(12) . . . . ?
C19 C20 C23 C22 178.2(7) . . . . ?
C21 C20 C23 C24 175.7(7) . . . . ?
C19 C20 C23 C24 1.4(7) . . . . ?
C19 N2 C24 C25 -179.2(8) . . . . ?
C19 N2 C24 C23 0.5(9) . . . . ?
C22 C23 C24 N2 -178.6(6) . . . . ?
C20 C23 C24 N2 -1.2(8) . . . . ?
C22 C23 C24 C25 1.1(11) . . . . ?
C20 C23 C24 C25 178.6(7) . . . . ?
N2 C24 C25 C26 177.2(8) . . . . ?
C23 C24 C25 C26 -2.5(12) . . . . ?
C24 C25 C26 C27 3.0(11) . . . . ?
C23 C22 C27 C26 0.3(9) . . . . ?
C23 C22 C27 C28 177.3(5) . . . . ?
C25 C26 C27 C22 -1.9(10) . . . . ?
C25 C26 C27 C28 -178.8(6) . . . . ?
Cu2 O5 C28 O6 -0.4(8) 2_665 . . . ?
Cu2 O5 C28 C27 179.0(4) 2_665 . . . ?
Cu1 O6 C28 O5 -4.0(8) 2_665 . . . ?
Cu1 O6 C28 C27 176.5(4) 2_665 . . . ?
C22 C27 C28 O5 1.8(8) . . . . ?
C26 C27 C28 O5 178.7(6) . . . . ?
C22 C27 C28 O6 -178.6(5) . . . . ?
C26 C27 C28 O6 -1.8(8) . . . . ?
Cu1 O9 C29 N3 -156.6(11) . . . . ?
C30 N3 C29 O9 -137(3) . . . . ?
C32 N3 C29 O9 25(3) . . . . ?
C29 N3 C30 C31 -48(4) . . . . ?
C32 N3 C30 C31 148(3) . . . . ?
C29 N3 C32 C33 111(3) . . . . ?
C30 N3 C32 C33 -83(3) . . . . ?

_diffrn_measured_fraction_theta_max 0.994
_diffrn_reflns_theta_full        26.43
_diffrn_measured_fraction_theta_full 0.994
_refine_diff_density_max         0.935
_refine_diff_density_min         -0.459
_refine_diff_density_rms         0.111
####################################################################### 
# 
# This file contains crystal structure data downloaded from the 
# Cambridge Structural Database (CSD) hosted by the Cambridge 
# Crystallographic Data Centre (CCDC).
# 
# Full information about CCDC data access policies and citation 
# guidelines are available at http://www.ccdc.cam.ac.uk/access/V1 
# 
# Audit and citation data items may have been added by the CCDC. 
# Please retain this information to preserve the provenance of 
# this file and to allow appropriate attribution of the data. 
# 
#######################################################################

data_4
_audit_block_doi                 10.5517/ccsqt09
_database_code_depnum_ccdc_archive 'CCDC 736901'
loop_
_citation_id
_citation_doi
_citation_year
1 10.1021/ja901731z 2009
_audit_update_record             
;
2009-06-19 deposited with the CCDC.	2019-02-14 downloaded from the CCDC.
;

_audit_creation_method           SHELXL-97
_chemical_name_systematic        
;
?
;
_chemical_name_common            none
_chemical_melting_point          'not measured'
_chemical_formula_moiety         'C33 H20 Cu2 N3 O9'
_chemical_formula_sum            'C33 H20 Cu2 N3 O9'
_chemical_formula_weight         729.60

loop_
_atom_type_symbol
_atom_type_description
_atom_type_scat_dispersion_real
_atom_type_scat_dispersion_imag
_atom_type_scat_source
C C 0.0033 0.0016 'International Tables Vol C Tables 4.2.6.8 and 6.1.1.4'
Cu Cu 0.3201 1.2651 'International Tables Vol C Tables 4.2.6.8 and 6.1.1.4'
N N 0.0061 0.0033 'International Tables Vol C Tables 4.2.6.8 and 6.1.1.4'
O O 0.0106 0.0060 'International Tables Vol C Tables 4.2.6.8 and 6.1.1.4'
H H 0.0000 0.0000 'International Tables Vol C Tables 4.2.6.8 and 6.1.1.4'

_symmetry_cell_setting           Cubic
_symmetry_space_group_name_H-M   Im-3m

loop_
_symmetry_equiv_pos_as_xyz
'x, y, z'
'-y, x, z'
'-x, -y, z'
'y, -x, z'
'x, -z, y'
'x, -y, -z'
'x, z, -y'
'z, y, -x'
'-x, y, -z'
'-z, y, x'
'z, x, y'
'y, z, x'
'-y, -z, x'
'z, -x, -y'
'-y, z, -x'
'-z, -x, y'
'-z, x, -y'
'y, -z, -x'
'y, x, -z'
'-y, -x, -z'
'-x, z, y'
'-x, -z, -y'
'z, -y, x'
'-z, -y, -x'
'x+1/2, y+1/2, z+1/2'
'-y+1/2, x+1/2, z+1/2'
'-x+1/2, -y+1/2, z+1/2'
'y+1/2, -x+1/2, z+1/2'
'x+1/2, -z+1/2, y+1/2'
'x+1/2, -y+1/2, -z+1/2'
'x+1/2, z+1/2, -y+1/2'
'z+1/2, y+1/2, -x+1/2'
'-x+1/2, y+1/2, -z+1/2'
'-z+1/2, y+1/2, x+1/2'
'z+1/2, x+1/2, y+1/2'
'y+1/2, z+1/2, x+1/2'
'-y+1/2, -z+1/2, x+1/2'
'z+1/2, -x+1/2, -y+1/2'
'-y+1/2, z+1/2, -x+1/2'
'-z+1/2, -x+1/2, y+1/2'
'-z+1/2, x+1/2, -y+1/2'
'y+1/2, -z+1/2, -x+1/2'
'y+1/2, x+1/2, -z+1/2'
'-y+1/2, -x+1/2, -z+1/2'
'-x+1/2, z+1/2, y+1/2'
'-x+1/2, -z+1/2, -y+1/2'
'z+1/2, -y+1/2, x+1/2'
'-z+1/2, -y+1/2, -x+1/2'
'-x, -y, -z'
'y, -x, -z'
'x, y, -z'
'-y, x, -z'
'-x, z, -y'
'-x, y, z'
'-x, -z, y'
'-z, -y, x'
'x, -y, z'
'z, -y, -x'
'-z, -x, -y'
'-y, -z, -x'
'y, z, -x'
'-z, x, y'
'y, -z, x'
'z, x, -y'
'z, -x, y'
'-y, z, x'
'-y, -x, z'
'y, x, z'
'x, -z, -y'
'x, z, y'
'-z, y, -x'
'z, y, x'
'-x+1/2, -y+1/2, -z+1/2'
'y+1/2, -x+1/2, -z+1/2'
'x+1/2, y+1/2, -z+1/2'
'-y+1/2, x+1/2, -z+1/2'
'-x+1/2, z+1/2, -y+1/2'
'-x+1/2, y+1/2, z+1/2'
'-x+1/2, -z+1/2, y+1/2'
'-z+1/2, -y+1/2, x+1/2'
'x+1/2, -y+1/2, z+1/2'
'z+1/2, -y+1/2, -x+1/2'
'-z+1/2, -x+1/2, -y+1/2'
'-y+1/2, -z+1/2, -x+1/2'
'y+1/2, z+1/2, -x+1/2'
'-z+1/2, x+1/2, y+1/2'
'y+1/2, -z+1/2, x+1/2'
'z+1/2, x+1/2, -y+1/2'
'z+1/2, -x+1/2, y+1/2'
'-y+1/2, z+1/2, x+1/2'
'-y+1/2, -x+1/2, z+1/2'
'y+1/2, x+1/2, z+1/2'
'x+1/2, -z+1/2, -y+1/2'
'x+1/2, z+1/2, y+1/2'
'-z+1/2, y+1/2, -x+1/2'
'z+1/2, y+1/2, x+1/2'

_cell_length_a                   30.5521(15)
_cell_length_b                   30.5521(15)
_cell_length_c                   30.5521(15)
_cell_angle_alpha                90.00
_cell_angle_beta                 90.00
_cell_angle_gamma                90.00
_cell_volume                     28518(2)
_cell_formula_units_Z            12
_cell_measurement_temperature    293(2)
_cell_measurement_reflns_used    1855
_cell_measurement_theta_min      2.3065
_cell_measurement_theta_max      17.5943

_exptl_crystal_description       cubic
_exptl_crystal_colour            green
_exptl_crystal_size_max          0.42
_exptl_crystal_size_mid          0.42
_exptl_crystal_size_min          0.42
_exptl_crystal_density_meas      ?
_exptl_crystal_density_diffrn    0.510
_exptl_crystal_density_method    'not measured'
_exptl_crystal_F_000             4428
_exptl_absorpt_coefficient_mu    0.467
_exptl_absorpt_correction_type   Multi-scan
_exptl_absorpt_correction_T_min  0.8279
_exptl_absorpt_correction_T_max  0.8279
_exptl_absorpt_process_details   SADABS

_exptl_special_details           
;
?
;

_diffrn_ambient_temperature      293(2)
_diffrn_radiation_wavelength     0.71073
_diffrn_radiation_type           MoK\a
_diffrn_radiation_source         'fine-focus sealed tube'
_diffrn_radiation_monochromator  graphite
_diffrn_measurement_device_type  'BRUKE SMART APEX'
_diffrn_measurement_method       'omega scans'
_diffrn_detector_area_resol_mean ?
_diffrn_reflns_number            42509
_diffrn_reflns_av_R_equivalents  0.1036
_diffrn_reflns_av_sigmaI/netI    0.0493
_diffrn_reflns_limit_h_min       -36
_diffrn_reflns_limit_h_max       37
_diffrn_reflns_limit_k_min       -36
_diffrn_reflns_limit_k_max       36
_diffrn_reflns_limit_l_min       -38
_diffrn_reflns_limit_l_max       9
_diffrn_reflns_theta_min         0.94
_diffrn_reflns_theta_max         26.39
_reflns_number_total             2800
_reflns_number_gt                888
_reflns_threshold_expression     I>2sigma(I)

_computing_data_collection       'Bruker SMART'
_computing_cell_refinement       'Bruker SMART'
_computing_data_reduction        'Bruker SAINT'
_computing_structure_solution    'SHELXS-97 (Sheldrick, 1990)'
_computing_structure_refinement  'SHELXL-97 (Sheldrick, 1997)'
_computing_molecular_graphics    'Bruker SHELXTL'
_computing_publication_material  'Bruker SHELXTL'

_refine_special_details          
;
Refinement of F^2^ against ALL reflections. The weighted R-factor wR and
goodness of fit S are based on F^2^, conventional R-factors R are based
on F, with F set to zero for negative F^2^. The threshold expression of
F^2^ > 2sigma(F^2^) is used only for calculating R-factors(gt) etc. and is
not relevant to the choice of reflections for refinement. R-factors based
on F^2^ are statistically about twice as large as those based on F, and R-
factors based on ALL data will be even larger.
;

_refine_ls_structure_factor_coef Fsqd
_refine_ls_matrix_type           full
_refine_ls_weighting_scheme      calc
_refine_ls_weighting_details     
'calc w=1/[\s^2^(Fo^2^)+(0.1324P)^2^] where P=(Fo^2^+2Fc^2^)/3'
_atom_sites_solution_primary     direct
_atom_sites_solution_secondary   difmap
_atom_sites_solution_hydrogens   geom
_refine_ls_hydrogen_treatment    mixed
_refine_ls_extinction_method     SHELXL
_refine_ls_extinction_coef       0.000000(8)
_refine_ls_extinction_expression Fc^*^=kFc[1+0.001xFc^2^\l^3^/sin(2\q)]^-1/4^
_refine_ls_number_reflns         2800
_refine_ls_number_parameters     90
_refine_ls_number_restraints     2
_refine_ls_R_factor_all          0.2597
_refine_ls_R_factor_gt           0.0796
_refine_ls_wR_factor_ref         0.2851
_refine_ls_wR_factor_gt          0.2110
_refine_ls_goodness_of_fit_ref   0.953
_refine_ls_restrained_S_all      0.959
_refine_ls_shift/su_max          0.326
_refine_ls_shift/su_mean         0.006

loop_
_atom_site_label
_atom_site_type_symbol
_atom_site_fract_x
_atom_site_fract_y
_atom_site_fract_z
_atom_site_U_iso_or_equiv
_atom_site_adp_type
_atom_site_occupancy
_atom_site_symmetry_multiplicity
_atom_site_calc_flag
_atom_site_refinement_flags
_atom_site_disorder_assembly
_atom_site_disorder_group
Cu1 Cu 0.0000 0.22846(2) 0.0000 0.1344(3) Uani 1 8 d S . .
Cu2 Cu 0.0000 0.31419(2) 0.0000 0.1840(4) Uani 1 8 d S . .
N1 N 0.0000 0.26545(13) 0.26545(13) 0.684(13) Uani 1 4 d S . .
H1A H 0.0000 0.2863 0.2863 0.820 Uiso 1 4 d SR . .
N2 N 0.0000 0.38297(11) 0.0000 0.164(2) Uani 1 8 d SD . .
C1 C 0.0000 0.27237(9) 0.08083(11) 0.1751(17) Uani 1 2 d S . .
C2 C 0.0000 0.27034(10) 0.12815(15) 0.254(3) Uani 1 2 d S . .
C3 C 0.0000 0.23141(10) 0.15356(12) 0.207(2) Uani 1 2 d S . .
H3A H 0.0000 0.2042 0.1378 0.249 Uiso 1 2 d SR . .
C4 C 0.0000 0.23212(10) 0.19914(13) 0.257(3) Uani 1 2 d S . .
C5 C 0.0000 0.27335(16) 0.22407(19) 0.507(8) Uani 1 2 d S . .
C6 C 0.0000 0.30904(17) 0.20069(19) 0.440(6) Uani 1 2 d S . .
H6A H 0.0000 0.3360 0.2168 0.528 Uiso 1 2 d SR . .
C7 C 0.0000 0.31141(13) 0.15539(19) 0.405(5) Uani 1 2 d S . .
H7A H 0.0000 0.3390 0.1403 0.486 Uiso 1 2 d SR . .
C8 C 0.03488(14) 0.40558(13) 0.0000 0.199(4) Uani 0.50 2 d SPD . .
H8A H 0.0616 0.3891 0.0000 0.239 Uiso 0.50 2 d SPR . .
C9 C 0.0346(2) 0.4511(2) 0.0000 0.297(7) Uani 0.50 2 d SP . .
H9A H 0.0630 0.4645 0.0000 0.357 Uiso 0.50 2 d SPR . .
C10 C 0.0000 0.47579(16) 0.0000 0.141(2) Uani 1 8 d S . .
O1 O 0.0000 0.23485(5) 0.06444(7) 0.1393(8) Uani 1 2 d S . .
O2 O 0.0000 0.30861(6) 0.06278(9) 0.2188(14) Uani 1 2 d S . .
O3 O 0.0000 0.15760(11) 0.0000 0.205(2) Uani 1 8 d SD . .
H3 H -0.0118(2) 0.1352(2) 0.0118(2) 0.114(13) Uiso 0.50 2 d SPD . .

loop_
_atom_site_aniso_label
_atom_site_aniso_U_11
_atom_site_aniso_U_22
_atom_site_aniso_U_33
_atom_site_aniso_U_23
_atom_site_aniso_U_13
_atom_site_aniso_U_12
Cu1 0.1749(4) 0.0536(3) 0.1749(4) 0.000 0.000 0.000
Cu2 0.2486(7) 0.0547(4) 0.2486(7) 0.000 0.000 0.000
N1 1.77(4) 0.141(3) 0.141(3) -0.053(3) 0.000 0.000
N2 0.231(3) 0.030(2) 0.231(3) 0.000 0.000 0.000
C1 0.276(4) 0.0858(19) 0.163(3) -0.0433(19) 0.000 0.000
C2 0.434(7) 0.101(2) 0.227(4) -0.066(3) 0.000 0.000
C3 0.352(5) 0.114(2) 0.155(3) -0.045(2) 0.000 0.000
C4 0.485(7) 0.131(3) 0.154(3) -0.046(2) 0.000 0.000
C5 1.19(2) 0.130(4) 0.198(5) -0.046(3) 0.000 0.000
C6 0.939(17) 0.169(4) 0.213(5) -0.086(4) 0.000 0.000
C7 0.869(15) 0.087(3) 0.259(6) -0.041(3) 0.000 0.000
C8 0.207(7) 0.029(2) 0.362(10) 0.000 0.000 -0.010(3)
C9 0.149(7) 0.158(6) 0.585(19) 0.000 0.000 -0.040(5)
C10 0.177(3) 0.069(3) 0.177(3) 0.000 0.000 0.000
O1 0.1972(19) 0.0715(11) 0.1493(16) -0.0189(11) 0.000 0.000
O2 0.368(3) 0.0553(11) 0.233(2) 0.0056(14) 0.000 0.000
O3 0.274(3) 0.065(2) 0.274(3) 0.000 0.000 0.000

_geom_special_details            
;
All esds (except the esd in the dihedral angle between two l.s. planes)
are estimated using the full covariance matrix. The cell esds are taken
into account individually in the estimation of esds in distances, angles
and torsion angles; correlations between esds in cell parameters are only
used when they are defined by crystal symmetry. An approximate (isotropic)
treatment of cell esds is used for estimating esds involving l.s. planes.
;

loop_
_geom_bond_atom_site_label_1
_geom_bond_atom_site_label_2
_geom_bond_distance
_geom_bond_site_symmetry_2
_geom_bond_publ_flag
Cu1 O1 1.978(2) 8 ?
Cu1 O1 1.978(2) 10 ?
Cu1 O1 1.978(2) 51 ?
Cu1 O1 1.979(2) . ?
Cu1 O3 2.165(3) . ?
Cu1 Cu2 2.6192(9) . ?
Cu2 O2 1.925(3) 10 ?
Cu2 O2 1.925(3) 51 ?
Cu2 O2 1.925(3) 8 ?
Cu2 O2 1.926(3) . ?
Cu2 N2 2.101(3) . ?
N1 C5 1.287(6) 21 ?
N1 C5 1.287(6) . ?
N1 H1A 0.9006 . ?
N2 C8 1.270(4) . ?
N2 C8 1.270(4) 10 ?
N2 C8 1.270(4) 8 ?
N2 C8 1.270(4) 54 ?
C1 O2 1.237(3) . ?
C1 O1 1.251(3) . ?
C1 C2 1.447(6) . ?
C2 C3 1.420(5) . ?
C2 C7 1.506(6) . ?
C3 C4 1.393(5) . ?
C3 H3A 0.9607 . ?
C4 C4 1.425(7) 21 ?
C4 C5 1.472(6) . ?
C5 C6 1.304(7) . ?
C6 C7 1.386(8) . ?
C6 H6A 0.9603 . ?
C7 H7A 0.9602 . ?
C8 C9 1.389(8) . ?
C8 C8 1.507(6) 8 ?
C8 C8 1.507(6) 10 ?
C8 H8A 0.9602 . ?
C9 C10 1.300(8) . ?
C9 C9 1.495(10) 8 ?
C9 C9 1.495(10) 10 ?
C9 H9A 0.9603 . ?
C10 C9 1.300(8) 8 ?
C10 C9 1.300(8) 54 ?
C10 C9 1.300(8) 10 ?
C10 C10 1.479(10) 49_565 ?
O3 H3 0.852(7) . ?

loop_
_geom_angle_atom_site_label_1
_geom_angle_atom_site_label_2
_geom_angle_atom_site_label_3
_geom_angle
_geom_angle_site_symmetry_1
_geom_angle_site_symmetry_3
_geom_angle_publ_flag
O1 Cu1 O1 168.69(10) 8 10 ?
O1 Cu1 O1 89.443(10) 8 51 ?
O1 Cu1 O1 89.443(10) 10 51 ?
O1 Cu1 O1 89.443(10) 8 . ?
O1 Cu1 O1 89.443(10) 10 . ?
O1 Cu1 O1 168.68(10) 51 . ?
O1 Cu1 O3 95.66(5) 8 . ?
O1 Cu1 O3 95.66(5) 10 . ?
O1 Cu1 O3 95.66(5) 51 . ?
O1 Cu1 O3 95.66(5) . . ?
O1 Cu1 Cu2 84.34(5) 8 . ?
O1 Cu1 Cu2 84.34(5) 10 . ?
O1 Cu1 Cu2 84.34(5) 51 . ?
O1 Cu1 Cu2 84.34(5) . . ?
O3 Cu1 Cu2 180.0 . . ?
O2 Cu2 O2 89.550(11) 10 51 ?
O2 Cu2 O2 169.84(12) 10 8 ?
O2 Cu2 O2 89.551(11) 51 8 ?
O2 Cu2 O2 89.551(11) 10 . ?
O2 Cu2 O2 169.84(12) 51 . ?
O2 Cu2 O2 89.551(11) 8 . ?
O2 Cu2 N2 95.08(6) 10 . ?
O2 Cu2 N2 95.08(6) 51 . ?
O2 Cu2 N2 95.08(6) 8 . ?
O2 Cu2 N2 95.08(6) . . ?
O2 Cu2 Cu1 84.92(6) 10 . ?
O2 Cu2 Cu1 84.92(6) 51 . ?
O2 Cu2 Cu1 84.92(6) 8 . ?
O2 Cu2 Cu1 84.92(6) . . ?
N2 Cu2 Cu1 180.0 . . ?
C5 N1 C5 111.6(6) 21 . ?
C5 N1 H1A 124.2 21 . ?
C5 N1 H1A 124.2 . . ?
C8 N2 C8 72.8(2) . 10 ?
C8 N2 C8 72.8(2) . 8 ?
C8 N2 C8 114.1(5) 10 8 ?
C8 N2 C8 114.1(5) . 54 ?
C8 N2 C8 72.8(2) 10 54 ?
C8 N2 C8 72.8(2) 8 54 ?
C8 N2 Cu2 123.0(2) . . ?
C8 N2 Cu2 123.0(2) 10 . ?
C8 N2 Cu2 123.0(2) 8 . ?
C8 N2 Cu2 123.0(2) 54 . ?
O2 C1 O1 129.9(3) . . ?
O2 C1 C2 118.9(3) . . ?
O1 C1 C2 111.1(3) . . ?
C3 C2 C1 125.6(3) . . ?
C3 C2 C7 113.3(4) . . ?
C1 C2 C7 121.1(3) . . ?
C4 C3 C2 122.2(3) . . ?
C4 C3 H3A 121.0 . . ?
C2 C3 H3A 116.8 . . ?
C3 C4 C4 134.11(18) . 21 ?
C3 C4 C5 122.1(4) . . ?
C4 C4 C5 103.8(3) 21 . ?
N1 C5 C6 134.0(5) . . ?
N1 C5 C4 110.4(5) . . ?
C6 C5 C4 115.6(5) . . ?
C5 C6 C7 126.2(5) . . ?
C5 C6 H6A 116.0 . . ?
C7 C6 H6A 117.8 . . ?
C6 C7 C2 120.6(4) . . ?
C6 C7 H7A 121.6 . . ?
C2 C7 H7A 117.8 . . ?
N2 C8 C9 122.6(5) . . ?
N2 C8 C8 53.61(11) . 8 ?
C9 C8 C8 89.8(2) . 8 ?
N2 C8 C8 53.61(11) . 10 ?
C9 C8 C8 89.8(2) . 10 ?
C8 C8 C8 90.002(1) 8 10 ?
N2 C8 H8A 115.4 . . ?
C9 C8 H8A 122.0 . . ?
C8 C8 H8A 127.0 8 . ?
C8 C8 H8A 127.0 10 . ?
C10 C9 C8 125.9(6) . . ?
C10 C9 C9 54.88(18) . 8 ?
C8 C9 C9 90.2(2) . 8 ?
C10 C9 C9 54.88(18) . 10 ?
C8 C9 C9 90.2(2) . 10 ?
C9 C9 C9 89.995(1) 8 10 ?
C10 C9 H9A 119.1 . . ?
C8 C9 H9A 115.0 . . ?
C9 C9 H9A 129.7 8 . ?
C9 C9 H9A 129.7 10 . ?
C9 C10 C9 70.2(4) 8 54 ?
C9 C10 C9 108.9(7) 8 10 ?
C9 C10 C9 70.2(4) 54 10 ?
C9 C10 C9 70.2(4) 8 . ?
C9 C10 C9 108.9(7) 54 . ?
C9 C10 C9 70.2(4) 10 . ?
C9 C10 C10 125.6(4) 8 49_565 ?
C9 C10 C10 125.6(4) 54 49_565 ?
C9 C10 C10 125.6(4) 10 49_565 ?
C9 C10 C10 125.5(4) . 49_565 ?
C1 O1 Cu1 119.3(2) . . ?
C1 O2 Cu2 121.6(2) . . ?
Cu1 O3 H3 143.3(6) . . ?

loop_
_geom_torsion_atom_site_label_1
_geom_torsion_atom_site_label_2
_geom_torsion_atom_site_label_3
_geom_torsion_atom_site_label_4
_geom_torsion
_geom_torsion_site_symmetry_1
_geom_torsion_site_symmetry_2
_geom_torsion_site_symmetry_3
_geom_torsion_site_symmetry_4
_geom_torsion_publ_flag
O1 Cu1 Cu2 O2 180.0 8 . . 10 ?
O1 Cu1 Cu2 O2 0.0 10 . . 10 ?
O1 Cu1 Cu2 O2 90.0 51 . . 10 ?
O1 Cu1 Cu2 O2 -90.0 . . . 10 ?
O3 Cu1 Cu2 O2 0(17) . . . 10 ?
O1 Cu1 Cu2 O2 90.0 8 . . 51 ?
O1 Cu1 Cu2 O2 -90.0 10 . . 51 ?
O1 Cu1 Cu2 O2 0.0 51 . . 51 ?
O1 Cu1 Cu2 O2 180.0 . . . 51 ?
O3 Cu1 Cu2 O2 0(11) . . . 51 ?
O1 Cu1 Cu2 O2 0.0 8 . . 8 ?
O1 Cu1 Cu2 O2 180.0 10 . . 8 ?
O1 Cu1 Cu2 O2 -90.0 51 . . 8 ?
O1 Cu1 Cu2 O2 90.0 . . . 8 ?
O3 Cu1 Cu2 O2 0(15) . . . 8 ?
O1 Cu1 Cu2 O2 -90.0 8 . . . ?
O1 Cu1 Cu2 O2 90.0 10 . . . ?
O1 Cu1 Cu2 O2 180.0 51 . . . ?
O1 Cu1 Cu2 O2 0.0 . . . . ?
O3 Cu1 Cu2 O2 0(11) . . . . ?
O1 Cu1 Cu2 N2 0(17) 8 . . . ?
O1 Cu1 Cu2 N2 0(80) 10 . . . ?
O1 Cu1 Cu2 N2 0(41) 51 . . . ?
O1 Cu1 Cu2 N2 0(41) . . . . ?
O3 Cu1 Cu2 N2 0(17) . . . . ?
O2 Cu2 N2 C8 180.0 10 . . . ?
O2 Cu2 N2 C8 -90.0 51 . . . ?
O2 Cu2 N2 C8 0.0 8 . . . ?
O2 Cu2 N2 C8 90.0 . . . . ?
Cu1 Cu2 N2 C8 0(17) . . . . ?
O2 Cu2 N2 C8 90.0 10 . . 10 ?
O2 Cu2 N2 C8 180.0 51 . . 10 ?
O2 Cu2 N2 C8 -90.0 8 . . 10 ?
O2 Cu2 N2 C8 0.0 . . . 10 ?
Cu1 Cu2 N2 C8 0(41) . . . 10 ?
O2 Cu2 N2 C8 -90.0 10 . . 8 ?
O2 Cu2 N2 C8 0.0 51 . . 8 ?
O2 Cu2 N2 C8 90.0 8 . . 8 ?
O2 Cu2 N2 C8 180.0 . . . 8 ?
Cu1 Cu2 N2 C8 0(41) . . . 8 ?
O2 Cu2 N2 C8 0.0 10 . . 54 ?
O2 Cu2 N2 C8 90.0 51 . . 54 ?
O2 Cu2 N2 C8 180.0 8 . . 54 ?
O2 Cu2 N2 C8 -90.0 . . . 54 ?
Cu1 Cu2 N2 C8 0(80) . . . 54 ?
O2 C1 C2 C3 180.0 . . . . ?
O1 C1 C2 C3 0.0 . . . . ?
O2 C1 C2 C7 0.0 . . . . ?
O1 C1 C2 C7 180.0 . . . . ?
C1 C2 C3 C4 180.0 . . . . ?
C7 C2 C3 C4 0.0 . . . . ?
C2 C3 C4 C4 180.0 . . . 21 ?
C2 C3 C4 C5 0.0 . . . . ?
C5 N1 C5 C6 180.0 21 . . . ?
C5 N1 C5 C4 0.0 21 . . . ?
C3 C4 C5 N1 180.0 . . . . ?
C4 C4 C5 N1 0.0 21 . . . ?
C3 C4 C5 C6 0.0 . . . . ?
C4 C4 C5 C6 180.0 21 . . . ?
N1 C5 C6 C7 180.000(1) . . . . ?
C4 C5 C6 C7 0.000(1) . . . . ?
C5 C6 C7 C2 0.000(1) . . . . ?
C3 C2 C7 C6 0.0 . . . . ?
C1 C2 C7 C6 180.0 . . . . ?
C8 N2 C8 C9 -61.46(15) 10 . . . ?
C8 N2 C8 C9 61.46(15) 8 . . . ?
C8 N2 C8 C9 0.0 54 . . . ?
Cu2 N2 C8 C9 180.0 . . . . ?
C8 N2 C8 C8 -122.9(3) 10 . . 8 ?
C8 N2 C8 C8 -61.46(15) 54 . . 8 ?
Cu2 N2 C8 C8 118.54(15) . . . 8 ?
C8 N2 C8 C8 122.9(3) 8 . . 10 ?
C8 N2 C8 C8 61.46(15) 54 . . 10 ?
Cu2 N2 C8 C8 -118.54(15) . . . 10 ?
N2 C8 C9 C10 0.0 . . . . ?
C8 C8 C9 C10 45.002(1) 8 . . . ?
C8 C8 C9 C10 -45.002(1) 10 . . . ?
N2 C8 C9 C9 -44.998(2) . . . 8 ?
C8 C8 C9 C9 0.0 8 . . 8 ?
C8 C8 C9 C9 -90.000(3) 10 . . 8 ?
N2 C8 C9 C9 44.998(2) . . . 10 ?
C8 C8 C9 C9 90.000(3) 8 . . 10 ?
C8 C8 C9 C9 0.0 10 . . 10 ?
C8 C9 C10 C9 -59.8(2) . . . 8 ?
C9 C9 C10 C9 -119.6(4) 10 . . 8 ?
C8 C9 C10 C9 0.0 . . . 54 ?
C9 C9 C10 C9 59.8(2) 8 . . 54 ?
C9 C9 C10 C9 -59.8(2) 10 . . 54 ?
C8 C9 C10 C9 59.8(2) . . . 10 ?
C9 C9 C10 C9 119.6(4) 8 . . 10 ?
C8 C9 C10 C10 180.0 . . . 49_565 ?
C9 C9 C10 C10 -120.2(2) 8 . . 49_565 ?
C9 C9 C10 C10 120.2(2) 10 . . 49_565 ?
O2 C1 O1 Cu1 0.0 . . . . ?
C2 C1 O1 Cu1 180.0 . . . . ?
O1 Cu1 O1 C1 84.37(5) 8 . . . ?
O1 Cu1 O1 C1 -84.37(5) 10 . . . ?
O1 Cu1 O1 C1 0.0 51 . . . ?
O3 Cu1 O1 C1 180.0 . . . . ?
Cu2 Cu1 O1 C1 0.0 . . . . ?
O1 C1 O2 Cu2 0.0 . . . . ?
C2 C1 O2 Cu2 180.0 . . . . ?
O2 Cu2 O2 C1 84.94(6) 10 . . . ?
O2 Cu2 O2 C1 0.0 51 . . . ?
O2 Cu2 O2 C1 -84.94(6) 8 . . . ?
N2 Cu2 O2 C1 180.0 . . . . ?
Cu1 Cu2 O2 C1 0.0 . . . . ?

_diffrn_measured_fraction_theta_max 1.000
_diffrn_reflns_theta_full        26.39
_diffrn_measured_fraction_theta_full 1.000
_refine_diff_density_max         0.462
_refine_diff_density_min         -0.160
_refine_diff_density_rms         0.056
####################################################################### 
# 
# This file contains crystal structure data downloaded from the 
# Cambridge Structural Database (CSD) hosted by the Cambridge 
# Crystallographic Data Centre (CCDC).
# 
# Full information about CCDC data access policies and citation 
# guidelines are available at http://www.ccdc.cam.ac.uk/access/V1 
# 
# Audit and citation data items may have been added by the CCDC. 
# Please retain this information to preserve the provenance of 
# this file and to allow appropriate attribution of the data. 
# 
#######################################################################

data_5
_audit_block_doi                 10.5517/ccsqt1b
_database_code_depnum_ccdc_archive 'CCDC 736902'
loop_
_citation_id
_citation_doi
_citation_year
1 10.1021/ja901731z 2009
_audit_update_record             
;
2009-06-19 deposited with the CCDC.	2019-02-14 downloaded from the CCDC.
;

_audit_creation_method           SHELXL-97
_chemical_name_systematic        
;
?
;
_chemical_name_common            none
_chemical_melting_point          'not measured'
_chemical_formula_moiety         'C29 H22 Cu N4 O4, 3(C5 H5 N)'
_chemical_formula_sum            'C44 H37 Cu N7 O4'
_chemical_formula_weight         791.35

loop_
_atom_type_symbol
_atom_type_description
_atom_type_scat_dispersion_real
_atom_type_scat_dispersion_imag
_atom_type_scat_source
C C 0.0033 0.0016 'International Tables Vol C Tables 4.2.6.8 and 6.1.1.4'
H H 0.0000 0.0000 'International Tables Vol C Tables 4.2.6.8 and 6.1.1.4'
N N 0.0061 0.0033 'International Tables Vol C Tables 4.2.6.8 and 6.1.1.4'
O O 0.0106 0.0060 'International Tables Vol C Tables 4.2.6.8 and 6.1.1.4'
Cu Cu 0.3201 1.2651 'International Tables Vol C Tables 4.2.6.8 and 6.1.1.4'

_symmetry_cell_setting           orthorhombic
_symmetry_space_group_name_H-M   'P 21 21 21'

loop_
_symmetry_equiv_pos_as_xyz
'x, y, z'
'-x+1/2, -y, z+1/2'
'x+1/2, -y+1/2, -z'
'-x, y+1/2, -z+1/2'

_cell_length_a                   8.6896(10)
_cell_length_b                   18.229(2)
_cell_length_c                   24.344(3)
_cell_angle_alpha                90.00
_cell_angle_beta                 90.00
_cell_angle_gamma                90.00
_cell_volume                     3856.1(8)
_cell_formula_units_Z            4
_cell_measurement_temperature    213(2)
_cell_measurement_reflns_used    1777
_cell_measurement_theta_min      4.418
_cell_measurement_theta_max      21.871

_exptl_crystal_description       Plate
_exptl_crystal_colour            Blue
_exptl_crystal_size_max          0.24
_exptl_crystal_size_mid          0.20
_exptl_crystal_size_min          0.20
_exptl_crystal_density_meas      ?
_exptl_crystal_density_diffrn    1.363
_exptl_crystal_density_method    'not measured'
_exptl_crystal_F_000             1644
_exptl_absorpt_coefficient_mu    0.620
_exptl_absorpt_correction_type   Multi-Scan
_exptl_absorpt_correction_T_min  0.9645
_exptl_absorpt_correction_T_max  1.000
_exptl_absorpt_process_details   SADABS

_exptl_special_details           
;
?
;

_diffrn_ambient_temperature      213(2)
_diffrn_radiation_wavelength     0.71073
_diffrn_radiation_type           MoK\a
_diffrn_radiation_source         'fine-focus sealed tube'
_diffrn_radiation_monochromator  graphite
_diffrn_measurement_device_type  'BRUKE SMART APEX'
_diffrn_measurement_method       'omega scans'
_diffrn_detector_area_resol_mean ?
_diffrn_reflns_number            34820
_diffrn_reflns_av_R_equivalents  0.0551
_diffrn_reflns_av_sigmaI/netI    0.0671
_diffrn_reflns_limit_h_min       -11
_diffrn_reflns_limit_h_max       9
_diffrn_reflns_limit_k_min       -20
_diffrn_reflns_limit_k_max       24
_diffrn_reflns_limit_l_min       -32
_diffrn_reflns_limit_l_max       32
_diffrn_reflns_theta_min         1.40
_diffrn_reflns_theta_max         28.76
_reflns_number_total             9970
_reflns_number_gt                7253
_reflns_threshold_expression     I>2sigma(I)

_computing_data_collection       'Bruker SMART'
_computing_cell_refinement       'Bruker SMART'
_computing_data_reduction        'Bruker SAINT'
_computing_structure_solution    'SHELXS-97 (Sheldrick, 1990)'
_computing_structure_refinement  'SHELXL-97 (Sheldrick, 1997)'
_computing_molecular_graphics    'Bruker SHELXTL'
_computing_publication_material  'Bruker SHELXTL'

_refine_special_details          
;
Refinement of F^2^ against ALL reflections. The weighted R-factor wR and
goodness of fit S are based on F^2^, conventional R-factors R are based
on F, with F set to zero for negative F^2^. The threshold expression of
F^2^ > 2sigma(F^2^) is used only for calculating R-factors(gt) etc. and is
not relevant to the choice of reflections for refinement. R-factors based
on F^2^ are statistically about twice as large as those based on F, and R-
factors based on ALL data will be even larger.
;

_refine_ls_structure_factor_coef Fsqd
_refine_ls_matrix_type           full
_refine_ls_weighting_scheme      calc
_refine_ls_weighting_details     
'calc w=1/[\s^2^(Fo^2^)+(0.0949P)^2^+0.7955P] where P=(Fo^2^+2Fc^2^)/3'
_atom_sites_solution_primary     direct
_atom_sites_solution_secondary   difmap
_atom_sites_solution_hydrogens   geom
_refine_ls_hydrogen_treatment    constr
_refine_ls_extinction_method     none
_refine_ls_extinction_coef       ?
_refine_ls_abs_structure_details 'Flack H D (1983), Acta Cryst. A39, 876-881'
_refine_ls_abs_structure_Flack   0.697(15)
_refine_ls_number_reflns         9970
_refine_ls_number_parameters     416
_refine_ls_number_restraints     0
_refine_ls_R_factor_all          0.0893
_refine_ls_R_factor_gt           0.0597
_refine_ls_wR_factor_ref         0.1700
_refine_ls_wR_factor_gt          0.1541
_refine_ls_goodness_of_fit_ref   1.047
_refine_ls_restrained_S_all      1.047
_refine_ls_shift/su_max          0.001
_refine_ls_shift/su_mean         0.000

loop_
_atom_site_label
_atom_site_type_symbol
_atom_site_fract_x
_atom_site_fract_y
_atom_site_fract_z
_atom_site_U_iso_or_equiv
_atom_site_adp_type
_atom_site_occupancy
_atom_site_symmetry_multiplicity
_atom_site_calc_flag
_atom_site_refinement_flags
_atom_site_disorder_assembly
_atom_site_disorder_group
Cu1 Cu 0.70797(5) 0.52161(2) 0.388598(15) 0.02944(13) Uani 1 1 d . . .
O1 O 0.7757(3) 0.46501(14) 0.45315(9) 0.0332(6) Uani 1 1 d . . .
O2 O 0.8109(3) 0.37377(14) 0.39410(9) 0.0355(6) Uani 1 1 d . . .
O3 O 0.7913(4) 0.49286(15) 0.76080(10) 0.0414(6) Uani 1 1 d . . .
O4 O 0.8645(3) 0.41711(15) 0.82796(9) 0.0349(6) Uani 1 1 d . . .
N1 N 0.5072(4) 0.46323(18) 0.38802(14) 0.0383(7) Uani 1 1 d . . .
N2 N 0.9322(4) 0.55483(19) 0.37841(12) 0.0364(7) Uani 1 1 d . . .
N3 N 0.6362(4) 0.6161(2) 0.44923(13) 0.0399(8) Uani 1 1 d . . .
N4 N 1.0785(4) 0.24010(18) 0.61640(12) 0.0373(7) Uani 1 1 d . . .
H4 H 1.1347 0.2007 0.6180 0.045 Uiso 1 1 calc R . .
N5 N 0.9328(6) 0.5308(3) 0.1041(2) 0.0859(15) Uiso 1 1 d . . .
N6 N 0.7155(10) 0.8645(5) 0.3838(3) 0.133(3) Uiso 1 1 d . . .
N7 N 1.5035(11) 0.2352(5) 0.8168(3) 0.130(3) Uiso 1 1 d . . .
C1 C 0.8209(4) 0.4002(2) 0.44105(13) 0.0275(8) Uani 1 1 d . . .
C2 C 0.8872(4) 0.35589(19) 0.48698(13) 0.0274(7) Uani 1 1 d . . .
C3 C 0.9677(5) 0.2899(2) 0.47468(13) 0.0325(8) Uani 1 1 d . . .
H3A H 0.9731 0.2742 0.4379 0.039 Uiso 1 1 calc R . .
C4 C 1.0383(5) 0.2480(2) 0.51464(14) 0.0359(9) Uani 1 1 d . . .
H4A H 1.0947 0.2057 0.5057 0.043 Uiso 1 1 calc R . .
C5 C 1.0219(5) 0.2714(2) 0.56913(14) 0.0324(8) Uani 1 1 d . . .
C6 C 0.9380(5) 0.3350(2) 0.58332(13) 0.0291(8) Uani 1 1 d . . .
C7 C 0.8716(4) 0.3775(2) 0.54152(13) 0.0284(8) Uani 1 1 d . . .
H7A H 0.8168 0.4203 0.5503 0.034 Uiso 1 1 calc R . .
C8 C 0.8847(5) 0.3912(2) 0.68021(13) 0.0296(8) Uani 1 1 d . . .
H8A H 0.8260 0.4314 0.6682 0.036 Uiso 1 1 calc R . .
C9 C 0.9423(4) 0.3411(2) 0.64269(13) 0.0289(8) Uani 1 1 d . . .
C10 C 1.0316(5) 0.2814(2) 0.66099(14) 0.0331(9) Uani 1 1 d . . .
C11 C 1.0619(5) 0.2702(2) 0.71695(15) 0.0389(10) Uani 1 1 d . . .
H11A H 1.1215 0.2303 0.7291 0.047 Uiso 1 1 calc R . .
C12 C 1.0006(5) 0.3203(2) 0.75349(14) 0.0355(9) Uani 1 1 d . . .
H12A H 1.0169 0.3131 0.7913 0.043 Uiso 1 1 calc R . .
C13 C 0.9151(5) 0.3811(2) 0.73641(14) 0.0309(8) Uani 1 1 d . . .
C14 C 0.8514(4) 0.4358(2) 0.77698(14) 0.0324(8) Uani 1 1 d . . .
C15 C 0.4568(5) 0.4333(3) 0.34175(18) 0.0470(11) Uani 1 1 d . . .
H15A H 0.5135 0.4400 0.3093 0.056 Uiso 1 1 calc R . .
C16 C 0.3230(6) 0.3924(3) 0.3401(2) 0.0636(14) Uani 1 1 d . . .
H16A H 0.2902 0.3708 0.3071 0.076 Uiso 1 1 calc R . .
C17 C 0.2384(7) 0.3838(4) 0.3872(3) 0.0758(17) Uani 1 1 d . . .
H17A H 0.1455 0.3574 0.3866 0.091 Uiso 1 1 calc R . .
C18 C 0.2906(7) 0.4139(4) 0.4350(2) 0.0711(15) Uani 1 1 d . . .
H18A H 0.2357 0.4078 0.4679 0.085 Uiso 1 1 calc R . .
C19 C 0.4257(5) 0.4534(3) 0.43371(19) 0.0526(12) Uani 1 1 d . . .
H19A H 0.4618 0.4744 0.4665 0.063 Uiso 1 1 calc R . .
C20 C 1.0082(5) 0.5462(3) 0.33130(18) 0.0474(11) Uani 1 1 d . . .
H20A H 0.9572 0.5249 0.3012 0.057 Uiso 1 1 calc R . .
C21 C 1.1597(6) 0.5676(4) 0.3254(2) 0.0620(14) Uani 1 1 d . . .
H21A H 1.2106 0.5619 0.2916 0.074 Uiso 1 1 calc R . .
C22 C 1.2349(6) 0.5973(3) 0.3697(2) 0.0598(13) Uani 1 1 d . . .
H22A H 1.3386 0.6113 0.3668 0.072 Uiso 1 1 calc R . .
C23 C 1.1575(6) 0.6062(3) 0.4178(2) 0.0605(14) Uani 1 1 d . . .
H23A H 1.2063 0.6275 0.4484 0.073 Uiso 1 1 calc R . .
C24 C 1.0076(5) 0.5836(3) 0.42115(18) 0.0502(11) Uani 1 1 d . . .
H24A H 0.9556 0.5886 0.4548 0.060 Uiso 1 1 calc R . .
C25 C 0.5815(6) 0.6789(3) 0.43102(19) 0.0502(11) Uani 1 1 d . . .
H25A H 0.5891 0.6887 0.3932 0.060 Uiso 1 1 calc R . .
C26 C 0.5137(9) 0.7312(3) 0.4642(3) 0.0779(18) Uani 1 1 d . . .
H26A H 0.4745 0.7748 0.4490 0.093 Uiso 1 1 calc R . .
C27 C 0.5046(10) 0.7189(3) 0.5181(3) 0.085(2) Uani 1 1 d . . .
H27A H 0.4581 0.7536 0.5414 0.102 Uiso 1 1 calc R . .
C28 C 0.5638(9) 0.6552(4) 0.5392(2) 0.083(2) Uani 1 1 d . . .
H28A H 0.5598 0.6456 0.5771 0.099 Uiso 1 1 calc R . .
C29 C 0.6284(7) 0.6061(3) 0.50384(17) 0.0549(13) Uani 1 1 d . . .
H29A H 0.6700 0.5627 0.5185 0.066 Uiso 1 1 calc R . .
C30 C 0.9724(9) 0.4977(4) 0.1498(3) 0.092(2) Uiso 1 1 d . . .
H30A H 0.9075 0.4603 0.1630 0.110 Uiso 1 1 calc R . .
C31 C 1.1018(9) 0.5138(4) 0.1795(3) 0.092(2) Uiso 1 1 d . . .
H31A H 1.1238 0.4885 0.2123 0.110 Uiso 1 1 calc R . .
C32 C 1.1972(11) 0.5666(4) 0.1610(3) 0.103(2) Uiso 1 1 d . . .
H32A H 1.2905 0.5764 0.1791 0.124 Uiso 1 1 calc R . .
C33 C 1.1565(10) 0.6054(5) 0.1157(3) 0.104(2) Uiso 1 1 d . . .
H33A H 1.2167 0.6453 0.1040 0.124 Uiso 1 1 calc R . .
C34 C 1.0258(8) 0.5859(4) 0.0870(3) 0.0849(19) Uiso 1 1 d . . .
H34A H 1.0006 0.6115 0.0548 0.102 Uiso 1 1 calc R . .
C35 C 0.6131(11) 0.8558(5) 0.3430(4) 0.109(3) Uiso 1 1 d . . .
H35A H 0.6355 0.8251 0.3131 0.131 Uiso 1 1 calc R . .
C36 C 0.4727(12) 0.8929(5) 0.3458(4) 0.121(3) Uiso 1 1 d . . .
H36A H 0.4028 0.8890 0.3165 0.145 Uiso 1 1 calc R . .
C37 C 0.4345(10) 0.9354(5) 0.3908(3) 0.107(2) Uiso 1 1 d . . .
H37A H 0.3369 0.9571 0.3944 0.129 Uiso 1 1 calc R . .
C38 C 0.5452(9) 0.9441(4) 0.4294(3) 0.090(2) Uiso 1 1 d . . .
H38A H 0.5243 0.9753 0.4592 0.109 Uiso 1 1 calc R . .
C39 C 0.6778(10) 0.9122(4) 0.4277(3) 0.104(2) Uiso 1 1 d . . .
H39A H 0.7498 0.9206 0.4559 0.125 Uiso 1 1 calc R . .
C40 C 1.5754(9) 0.2749(4) 0.7778(3) 0.090(2) Uiso 1 1 d . . .
H40A H 1.6361 0.3152 0.7884 0.109 Uiso 1 1 calc R . .
C41 C 1.5632(11) 0.2589(5) 0.7261(4) 0.112(3) Uiso 1 1 d . . .
H41A H 1.6113 0.2866 0.6984 0.134 Uiso 1 1 calc R . .
C42 C 1.4689(9) 0.1947(4) 0.7143(3) 0.091(2) Uiso 1 1 d . . .
H42A H 1.4552 0.1786 0.6780 0.109 Uiso 1 1 calc R . .
C43 C 1.4048(10) 0.1605(5) 0.7544(3) 0.097(2) Uiso 1 1 d . . .
H43A H 1.3471 0.1182 0.7463 0.116 Uiso 1 1 calc R . .
C44 C 1.4154(9) 0.1815(5) 0.8065(3) 0.094(2) Uiso 1 1 d . . .
H44A H 1.3601 0.1576 0.8345 0.113 Uiso 1 1 calc R . .

loop_
_atom_site_aniso_label
_atom_site_aniso_U_11
_atom_site_aniso_U_22
_atom_site_aniso_U_33
_atom_site_aniso_U_23
_atom_site_aniso_U_13
_atom_site_aniso_U_12
Cu1 0.0331(2) 0.0340(2) 0.02125(17) 0.00347(18) -0.00067(18) 0.0008(2)
O1 0.0449(14) 0.0320(14) 0.0228(10) 0.0011(9) -0.0027(11) 0.0055(13)
O2 0.0478(16) 0.0377(14) 0.0211(10) -0.0019(10) -0.0052(12) -0.0014(13)
O3 0.0531(16) 0.0404(16) 0.0308(12) -0.0036(11) 0.0019(13) 0.0128(15)
O4 0.0450(15) 0.0394(15) 0.0203(11) -0.0050(11) -0.0006(11) 0.0026(13)
N1 0.0340(16) 0.041(2) 0.0395(16) 0.0110(16) -0.0013(16) 0.0003(14)
N2 0.0374(17) 0.0418(19) 0.0301(16) 0.0023(13) -0.0018(13) 0.0005(15)
N3 0.0448(19) 0.043(2) 0.0321(16) -0.0036(14) 0.0010(14) 0.0058(17)
N4 0.052(2) 0.0358(17) 0.0245(14) 0.0007(14) -0.0014(15) 0.0153(15)
C1 0.0264(19) 0.034(2) 0.0217(14) 0.0027(13) -0.0001(13) -0.0040(15)
C2 0.0308(19) 0.0266(18) 0.0247(15) -0.0007(13) 0.0022(14) -0.0033(15)
C3 0.043(2) 0.036(2) 0.0188(15) -0.0079(14) 0.0011(15) -0.0028(18)
C4 0.045(2) 0.033(2) 0.0299(18) -0.0056(17) -0.0001(18) 0.0119(18)
C5 0.041(2) 0.031(2) 0.0248(16) -0.0023(14) 0.0025(15) 0.0005(17)
C6 0.037(2) 0.0285(19) 0.0215(15) -0.0045(14) 0.0030(14) 0.0028(17)
C7 0.0317(19) 0.0276(19) 0.0260(16) -0.0009(14) 0.0010(14) 0.0009(16)
C8 0.039(2) 0.0268(18) 0.0230(15) -0.0010(13) 0.0013(14) 0.0038(16)
C9 0.035(2) 0.0293(19) 0.0220(15) -0.0023(14) 0.0012(14) 0.0051(16)
C10 0.042(2) 0.033(2) 0.0246(16) -0.0015(14) 0.0021(15) 0.0088(17)
C11 0.047(2) 0.044(2) 0.0252(17) 0.0062(16) -0.0013(16) 0.014(2)
C12 0.044(2) 0.039(2) 0.0232(16) 0.0031(15) -0.0023(15) 0.0021(19)
C13 0.034(2) 0.037(2) 0.0219(15) -0.0012(14) 0.0015(14) 0.0027(17)
C14 0.0324(19) 0.039(2) 0.0258(16) -0.0051(15) 0.0020(14) -0.0019(18)
C15 0.043(2) 0.056(3) 0.042(2) 0.004(2) -0.0002(19) 0.000(2)
C16 0.057(3) 0.067(3) 0.067(3) -0.003(3) -0.002(3) -0.022(3)
C17 0.057(3) 0.086(4) 0.085(4) 0.008(4) 0.002(3) -0.032(3)
C18 0.062(3) 0.092(4) 0.059(3) 0.009(3) 0.018(3) -0.023(4)
C19 0.042(2) 0.070(3) 0.046(2) 0.013(2) 0.009(2) -0.007(2)
C20 0.040(2) 0.063(3) 0.039(2) 0.000(2) 0.0066(19) -0.001(2)
C21 0.047(3) 0.095(4) 0.044(2) 0.007(3) 0.009(2) 0.001(3)
C22 0.042(3) 0.070(3) 0.067(3) 0.014(3) 0.000(2) -0.008(3)
C23 0.052(3) 0.072(4) 0.058(3) -0.013(3) -0.012(2) -0.010(3)
C24 0.044(3) 0.067(3) 0.040(2) -0.004(2) -0.0034(19) 0.000(2)
C25 0.060(3) 0.039(2) 0.051(2) -0.004(2) -0.001(2) 0.007(2)
C26 0.106(5) 0.043(3) 0.084(4) -0.011(3) 0.008(4) 0.012(3)
C27 0.119(6) 0.060(4) 0.077(4) -0.018(3) 0.032(4) 0.020(4)
C28 0.125(6) 0.075(4) 0.048(3) -0.004(3) 0.020(3) 0.018(4)
C29 0.078(3) 0.058(3) 0.0289(19) -0.0017(19) 0.005(2) 0.015(3)

_geom_special_details            
;
All esds (except the esd in the dihedral angle between two l.s. planes)
are estimated using the full covariance matrix. The cell esds are taken
into account individually in the estimation of esds in distances, angles
and torsion angles; correlations between esds in cell parameters are only
used when they are defined by crystal symmetry. An approximate (isotropic)
treatment of cell esds is used for estimating esds involving l.s. planes.
;

loop_
_geom_bond_atom_site_label_1
_geom_bond_atom_site_label_2
_geom_bond_distance
_geom_bond_site_symmetry_2
_geom_bond_publ_flag
Cu1 O4 1.955(2) 2_664 ?
Cu1 O1 1.970(2) . ?
Cu1 N1 2.043(3) . ?
Cu1 N2 2.056(3) . ?
Cu1 N3 2.352(3) . ?
O1 C1 1.279(5) . ?
O2 C1 1.244(4) . ?
O3 C14 1.228(5) . ?
O4 C14 1.292(4) . ?
O4 Cu1 1.956(2) 2_665 ?
N1 C15 1.326(5) . ?
N1 C19 1.331(5) . ?
N2 C20 1.333(5) . ?
N2 C24 1.337(5) . ?
N3 C25 1.317(6) . ?
N3 C29 1.343(5) . ?
N4 C5 1.375(5) . ?
N4 C10 1.383(5) . ?
N4 H4 0.8700 . ?
N5 C30 1.312(8) . ?
N5 C34 1.354(9) . ?
N6 C35 1.341(11) . ?
N6 C39 1.417(10) . ?
N7 C44 1.268(10) . ?
N7 C40 1.347(10) . ?
C1 C2 1.495(5) . ?
C2 C7 1.391(5) . ?
C2 C3 1.424(5) . ?
C3 C4 1.380(6) . ?
C3 H3A 0.9400 . ?
C4 C5 1.401(5) . ?
C4 H4A 0.9400 . ?
C5 C6 1.412(5) . ?
C6 C7 1.403(5) . ?
C6 C9 1.450(4) . ?
C7 H7A 0.9400 . ?
C8 C9 1.385(5) . ?
C8 C13 1.405(5) . ?
C8 H8A 0.9400 . ?
C9 C10 1.408(5) . ?
C10 C11 1.402(5) . ?
C11 C12 1.381(6) . ?
C11 H11A 0.9400 . ?
C12 C13 1.398(6) . ?
C12 H12A 0.9400 . ?
C13 C14 1.509(5) . ?
C15 C16 1.382(7) . ?
C15 H15A 0.9400 . ?
C16 C17 1.371(8) . ?
C16 H16A 0.9400 . ?
C17 C18 1.363(8) . ?
C17 H17A 0.9400 . ?
C18 C19 1.378(8) . ?
C18 H18A 0.9400 . ?
C19 H19A 0.9400 . ?
C20 C21 1.380(7) . ?
C20 H20A 0.9400 . ?
C21 C22 1.371(7) . ?
C21 H21A 0.9400 . ?
C22 C23 1.362(7) . ?
C22 H22A 0.9400 . ?
C23 C24 1.368(7) . ?
C23 H23A 0.9400 . ?
C24 H24A 0.9400 . ?
C25 C26 1.381(7) . ?
C25 H25A 0.9400 . ?
C26 C27 1.334(8) . ?
C26 H26A 0.9400 . ?
C27 C28 1.370(9) . ?
C27 H27A 0.9400 . ?
C28 C29 1.363(7) . ?
C28 H28A 0.9400 . ?
C29 H29A 0.9400 . ?
C30 C31 1.370(10) . ?
C30 H30A 0.9400 . ?
C31 C32 1.349(10) . ?
C31 H31A 0.9400 . ?
C32 C33 1.356(10) . ?
C32 H32A 0.9400 . ?
C33 C34 1.379(10) . ?
C33 H33A 0.9400 . ?
C34 H34A 0.9400 . ?
C35 C36 1.397(12) . ?
C35 H35A 0.9400 . ?
C36 C37 1.380(11) . ?
C36 H36A 0.9400 . ?
C37 C38 1.355(10) . ?
C37 H37A 0.9400 . ?
C38 C39 1.291(10) . ?
C38 H38A 0.9400 . ?
C39 H39A 0.9400 . ?
C40 C41 1.297(11) . ?
C40 H40A 0.9400 . ?
C41 C42 1.458(12) . ?
C41 H41A 0.9400 . ?
C42 C43 1.284(10) . ?
C42 H42A 0.9400 . ?
C43 C44 1.330(9) . ?
C43 H43A 0.9400 . ?
C44 H44A 0.9400 . ?

loop_
_geom_angle_atom_site_label_1
_geom_angle_atom_site_label_2
_geom_angle_atom_site_label_3
_geom_angle
_geom_angle_site_symmetry_1
_geom_angle_site_symmetry_3
_geom_angle_publ_flag
O4 Cu1 O1 176.10(11) 2_664 . ?
O4 Cu1 N1 91.00(12) 2_664 . ?
O1 Cu1 N1 89.30(12) . . ?
O4 Cu1 N2 92.62(12) 2_664 . ?
O1 Cu1 N2 88.13(12) . . ?
N1 Cu1 N2 164.12(14) . . ?
O4 Cu1 N3 88.30(11) 2_664 . ?
O1 Cu1 N3 87.81(11) . . ?
N1 Cu1 N3 99.16(13) . . ?
N2 Cu1 N3 96.40(13) . . ?
C1 O1 Cu1 113.05(19) . . ?
C14 O4 Cu1 123.1(3) . 2_665 ?
C15 N1 C19 118.6(4) . . ?
C15 N1 Cu1 120.2(3) . . ?
C19 N1 Cu1 121.2(3) . . ?
C20 N2 C24 118.3(4) . . ?
C20 N2 Cu1 122.6(3) . . ?
C24 N2 Cu1 119.1(3) . . ?
C25 N3 C29 115.7(4) . . ?
C25 N3 Cu1 121.4(3) . . ?
C29 N3 Cu1 122.3(3) . . ?
C5 N4 C10 109.0(3) . . ?
C5 N4 H4 125.5 . . ?
C10 N4 H4 125.5 . . ?
C30 N5 C34 116.5(6) . . ?
C35 N6 C39 118.6(9) . . ?
C44 N7 C40 123.7(8) . . ?
O2 C1 O1 123.3(3) . . ?
O2 C1 C2 120.3(3) . . ?
O1 C1 C2 116.4(3) . . ?
C7 C2 C3 119.2(3) . . ?
C7 C2 C1 121.6(3) . . ?
C3 C2 C1 119.3(3) . . ?
C4 C3 C2 122.5(3) . . ?
C4 C3 H3A 118.7 . . ?
C2 C3 H3A 118.7 . . ?
C3 C4 C5 117.0(4) . . ?
C3 C4 H4A 121.5 . . ?
C5 C4 H4A 121.5 . . ?
N4 C5 C4 129.0(4) . . ?
N4 C5 C6 108.7(3) . . ?
C4 C5 C6 122.3(4) . . ?
C7 C6 C5 119.2(3) . . ?
C7 C6 C9 133.7(3) . . ?
C5 C6 C9 107.1(3) . . ?
C2 C7 C6 119.7(3) . . ?
C2 C7 H7A 120.1 . . ?
C6 C7 H7A 120.1 . . ?
C9 C8 C13 119.2(3) . . ?
C9 C8 H8A 120.4 . . ?
C13 C8 H8A 120.4 . . ?
C8 C9 C10 120.0(3) . . ?
C8 C9 C6 134.3(3) . . ?
C10 C9 C6 105.7(3) . . ?
N4 C10 C11 128.9(4) . . ?
N4 C10 C9 109.5(3) . . ?
C11 C10 C9 121.6(3) . . ?
C12 C11 C10 117.2(4) . . ?
C12 C11 H11A 121.4 . . ?
C10 C11 H11A 121.4 . . ?
C11 C12 C13 122.5(3) . . ?
C11 C12 H12A 118.7 . . ?
C13 C12 H12A 118.7 . . ?
C12 C13 C8 119.5(3) . . ?
C12 C13 C14 121.6(3) . . ?
C8 C13 C14 118.8(3) . . ?
O3 C14 O4 124.7(3) . . ?
O3 C14 C13 120.4(3) . . ?
O4 C14 C13 114.9(3) . . ?
N1 C15 C16 121.6(4) . . ?
N1 C15 H15A 119.2 . . ?
C16 C15 H15A 119.2 . . ?
C17 C16 C15 119.3(5) . . ?
C17 C16 H16A 120.4 . . ?
C15 C16 H16A 120.4 . . ?
C18 C17 C16 119.3(5) . . ?
C18 C17 H17A 120.4 . . ?
C16 C17 H17A 120.4 . . ?
C17 C18 C19 118.4(5) . . ?
C17 C18 H18A 120.8 . . ?
C19 C18 H18A 120.8 . . ?
N1 C19 C18 122.8(5) . . ?
N1 C19 H19A 118.6 . . ?
C18 C19 H19A 118.6 . . ?
N2 C20 C21 121.9(5) . . ?
N2 C20 H20A 119.0 . . ?
C21 C20 H20A 119.0 . . ?
C22 C21 C20 118.9(5) . . ?
C22 C21 H21A 120.5 . . ?
C20 C21 H21A 120.5 . . ?
C23 C22 C21 119.3(5) . . ?
C23 C22 H22A 120.4 . . ?
C21 C22 H22A 120.4 . . ?
C22 C23 C24 119.0(5) . . ?
C22 C23 H23A 120.5 . . ?
C24 C23 H23A 120.5 . . ?
N2 C24 C23 122.6(4) . . ?
N2 C24 H24A 118.7 . . ?
C23 C24 H24A 118.7 . . ?
N3 C25 C26 123.9(5) . . ?
N3 C25 H25A 118.1 . . ?
C26 C25 H25A 118.1 . . ?
C27 C26 C25 119.0(6) . . ?
C27 C26 H26A 120.5 . . ?
C25 C26 H26A 120.5 . . ?
C26 C27 C28 119.2(6) . . ?
C26 C27 H27A 120.4 . . ?
C28 C27 H27A 120.4 . . ?
C29 C28 C27 118.4(5) . . ?
C29 C28 H28A 120.8 . . ?
C27 C28 H28A 120.8 . . ?
N3 C29 C28 123.8(5) . . ?
N3 C29 H29A 118.1 . . ?
C28 C29 H29A 118.1 . . ?
N5 C30 C31 124.3(7) . . ?
N5 C30 H30A 117.8 . . ?
C31 C30 H30A 117.8 . . ?
C32 C31 C30 118.7(8) . . ?
C32 C31 H31A 120.6 . . ?
C30 C31 H31A 120.6 . . ?
C31 C32 C33 119.0(8) . . ?
C31 C32 H32A 120.5 . . ?
C33 C32 H32A 120.5 . . ?
C32 C33 C34 119.4(8) . . ?
C32 C33 H33A 120.3 . . ?
C34 C33 H33A 120.3 . . ?
N5 C34 C33 121.8(7) . . ?
N5 C34 H34A 119.1 . . ?
C33 C34 H34A 119.1 . . ?
N6 C35 C36 119.1(9) . . ?
N6 C35 H35A 120.5 . . ?
C36 C35 H35A 120.5 . . ?
C37 C36 C35 121.3(9) . . ?
C37 C36 H36A 119.3 . . ?
C35 C36 H36A 119.3 . . ?
C38 C37 C36 116.5(9) . . ?
C38 C37 H37A 121.8 . . ?
C36 C37 H37A 121.8 . . ?
C39 C38 C37 124.0(8) . . ?
C39 C38 H38A 118.0 . . ?
C37 C38 H38A 118.0 . . ?
C38 C39 N6 120.4(8) . . ?
C38 C39 H39A 119.8 . . ?
N6 C39 H39A 119.8 . . ?
C41 C40 N7 121.7(9) . . ?
C41 C40 H40A 119.1 . . ?
N7 C40 H40A 119.1 . . ?
C40 C41 C42 114.7(9) . . ?
C40 C41 H41A 122.7 . . ?
C42 C41 H41A 122.7 . . ?
C43 C42 C41 119.0(8) . . ?
C43 C42 H42A 120.5 . . ?
C41 C42 H42A 120.5 . . ?
C42 C43 C44 123.7(9) . . ?
C42 C43 H43A 118.2 . . ?
C44 C43 H43A 118.2 . . ?
N7 C44 C43 116.9(9) . . ?
N7 C44 H44A 121.5 . . ?
C43 C44 H44A 121.5 . . ?

loop_
_geom_torsion_atom_site_label_1
_geom_torsion_atom_site_label_2
_geom_torsion_atom_site_label_3
_geom_torsion_atom_site_label_4
_geom_torsion
_geom_torsion_site_symmetry_1
_geom_torsion_site_symmetry_2
_geom_torsion_site_symmetry_3
_geom_torsion_site_symmetry_4
_geom_torsion_publ_flag
O4 Cu1 O1 C1 171.0(17) 2_664 . . . ?
N1 Cu1 O1 C1 76.5(3) . . . . ?
N2 Cu1 O1 C1 -87.9(3) . . . . ?
N3 Cu1 O1 C1 175.7(3) . . . . ?
O4 Cu1 N1 C15 53.0(3) 2_664 . . . ?
O1 Cu1 N1 C15 -130.9(3) . . . . ?
N2 Cu1 N1 C15 -50.3(6) . . . . ?
N3 Cu1 N1 C15 141.4(3) . . . . ?
O4 Cu1 N1 C19 -128.1(3) 2_664 . . . ?
O1 Cu1 N1 C19 48.1(3) . . . . ?
N2 Cu1 N1 C19 128.7(5) . . . . ?
N3 Cu1 N1 C19 -39.6(4) . . . . ?
O4 Cu1 N2 C20 -57.9(4) 2_664 . . . ?
O1 Cu1 N2 C20 125.9(4) . . . . ?
N1 Cu1 N2 C20 45.1(7) . . . . ?
N3 Cu1 N2 C20 -146.5(4) . . . . ?
O4 Cu1 N2 C24 124.8(3) 2_664 . . . ?
O1 Cu1 N2 C24 -51.3(3) . . . . ?
N1 Cu1 N2 C24 -132.2(5) . . . . ?
N3 Cu1 N2 C24 36.3(4) . . . . ?
O4 Cu1 N3 C25 -3.3(4) 2_664 . . . ?
O1 Cu1 N3 C25 177.0(4) . . . . ?
N1 Cu1 N3 C25 -94.0(4) . . . . ?
N2 Cu1 N3 C25 89.1(4) . . . . ?
O4 Cu1 N3 C29 167.4(4) 2_664 . . . ?
O1 Cu1 N3 C29 -12.2(4) . . . . ?
N1 Cu1 N3 C29 76.7(4) . . . . ?
N2 Cu1 N3 C29 -100.1(4) . . . . ?
Cu1 O1 C1 O2 -5.7(5) . . . . ?
Cu1 O1 C1 C2 174.8(2) . . . . ?
O2 C1 C2 C7 -166.6(3) . . . . ?
O1 C1 C2 C7 12.9(5) . . . . ?
O2 C1 C2 C3 13.2(5) . . . . ?
O1 C1 C2 C3 -167.3(3) . . . . ?
C7 C2 C3 C4 -3.4(6) . . . . ?
C1 C2 C3 C4 176.8(4) . . . . ?
C2 C3 C4 C5 2.8(6) . . . . ?
C10 N4 C5 C4 -179.0(5) . . . . ?
C10 N4 C5 C6 0.7(4) . . . . ?
C3 C4 C5 N4 179.5(4) . . . . ?
C3 C4 C5 C6 -0.2(6) . . . . ?
N4 C5 C6 C7 178.6(4) . . . . ?
C4 C5 C6 C7 -1.7(6) . . . . ?
N4 C5 C6 C9 -1.1(5) . . . . ?
C4 C5 C6 C9 178.6(4) . . . . ?
C3 C2 C7 C6 1.4(6) . . . . ?
C1 C2 C7 C6 -178.8(3) . . . . ?
C5 C6 C7 C2 1.0(6) . . . . ?
C9 C6 C7 C2 -179.3(4) . . . . ?
C13 C8 C9 C10 -0.7(6) . . . . ?
C13 C8 C9 C6 -178.1(4) . . . . ?
C7 C6 C9 C8 -0.9(9) . . . . ?
C5 C6 C9 C8 178.8(4) . . . . ?
C7 C6 C9 C10 -178.5(4) . . . . ?
C5 C6 C9 C10 1.2(5) . . . . ?
C5 N4 C10 C11 180.0(5) . . . . ?
C5 N4 C10 C9 0.1(5) . . . . ?
C8 C9 C10 N4 -178.8(4) . . . . ?
C6 C9 C10 N4 -0.8(5) . . . . ?
C8 C9 C10 C11 1.3(6) . . . . ?
C6 C9 C10 C11 179.3(4) . . . . ?
N4 C10 C11 C12 -180.0(4) . . . . ?
C9 C10 C11 C12 -0.1(7) . . . . ?
C10 C11 C12 C13 -1.8(7) . . . . ?
C11 C12 C13 C8 2.4(6) . . . . ?
C11 C12 C13 C14 -179.0(4) . . . . ?
C9 C8 C13 C12 -1.1(6) . . . . ?
C9 C8 C13 C14 -179.8(4) . . . . ?
Cu1 O4 C14 O3 -0.9(6) 2_665 . . . ?
Cu1 O4 C14 C13 179.7(2) 2_665 . . . ?
C12 C13 C14 O3 172.1(4) . . . . ?
C8 C13 C14 O3 -9.3(6) . . . . ?
C12 C13 C14 O4 -8.6(6) . . . . ?
C8 C13 C14 O4 170.1(3) . . . . ?
C19 N1 C15 C16 -0.1(7) . . . . ?
Cu1 N1 C15 C16 178.9(4) . . . . ?
N1 C15 C16 C17 1.3(9) . . . . ?
C15 C16 C17 C18 -1.9(10) . . . . ?
C16 C17 C18 C19 1.4(10) . . . . ?
C15 N1 C19 C18 -0.4(7) . . . . ?
Cu1 N1 C19 C18 -179.4(4) . . . . ?
C17 C18 C19 N1 -0.2(9) . . . . ?
C24 N2 C20 C21 -1.5(7) . . . . ?
Cu1 N2 C20 C21 -178.8(4) . . . . ?
N2 C20 C21 C22 1.3(8) . . . . ?
C20 C21 C22 C23 -1.3(9) . . . . ?
C21 C22 C23 C24 1.5(9) . . . . ?
C20 N2 C24 C23 1.8(7) . . . . ?
Cu1 N2 C24 C23 179.2(4) . . . . ?
C22 C23 C24 N2 -1.8(9) . . . . ?
C29 N3 C25 C26 -2.7(8) . . . . ?
Cu1 N3 C25 C26 168.6(5) . . . . ?
N3 C25 C26 C27 1.3(10) . . . . ?
C25 C26 C27 C28 0.5(12) . . . . ?
C26 C27 C28 C29 -0.8(12) . . . . ?
C25 N3 C29 C28 2.4(8) . . . . ?
Cu1 N3 C29 C28 -168.8(5) . . . . ?
C27 C28 C29 N3 -0.7(11) . . . . ?
C34 N5 C30 C31 -2.1(11) . . . . ?
N5 C30 C31 C32 -0.7(12) . . . . ?
C30 C31 C32 C33 4.5(12) . . . . ?
C31 C32 C33 C34 -5.6(12) . . . . ?
C30 N5 C34 C33 0.9(10) . . . . ?
C32 C33 C34 N5 2.9(12) . . . . ?
C39 N6 C35 C36 -1.0(14) . . . . ?
N6 C35 C36 C37 -3.2(14) . . . . ?
C35 C36 C37 C38 5.6(13) . . . . ?
C36 C37 C38 C39 -4.0(13) . . . . ?
C37 C38 C39 N6 -0.1(13) . . . . ?
C35 N6 C39 C38 2.7(13) . . . . ?
C44 N7 C40 C41 -2.3(14) . . . . ?
N7 C40 C41 C42 -1.1(13) . . . . ?
C40 C41 C42 C43 1.2(13) . . . . ?
C41 C42 C43 C44 2.1(13) . . . . ?
C40 N7 C44 C43 5.5(13) . . . . ?
C42 C43 C44 N7 -5.3(13) . . . . ?

_diffrn_measured_fraction_theta_max 0.997
_diffrn_reflns_theta_full        28.76
_diffrn_measured_fraction_theta_full 0.997
_refine_diff_density_max         0.675
_refine_diff_density_min         -0.487
_refine_diff_density_rms         0.075
####################################################################### 
# 
# This file contains crystal structure data downloaded from the 
# Cambridge Structural Database (CSD) hosted by the Cambridge 
# Crystallographic Data Centre (CCDC).
# 
# Full information about CCDC data access policies and citation 
# guidelines are available at http://www.ccdc.cam.ac.uk/access/V1 
# 
# Audit and citation data items may have been added by the CCDC. 
# Please retain this information to preserve the provenance of 
# this file and to allow appropriate attribution of the data. 
# 
#######################################################################

data_3
_audit_block_doi                 10.5517/ccsqsz7
_database_code_depnum_ccdc_archive 'CCDC 736900'
loop_
_citation_id
_citation_doi
_citation_year
1 10.1021/ja901731z 2009
_audit_update_record             
;
2009-06-19 deposited with the CCDC.	2019-02-14 downloaded from the CCDC.
;

_audit_creation_method           SHELXL-97
_chemical_name_systematic        
;
?
;
_chemical_name_common            ?
_chemical_melting_point          ?
_chemical_formula_moiety         ?
_chemical_formula_sum            'C198 H126 Cu12 N18 O54'
_chemical_formula_weight         4383.65

loop_
_atom_type_symbol
_atom_type_description
_atom_type_scat_dispersion_real
_atom_type_scat_dispersion_imag
_atom_type_scat_source
C C 0.0033 0.0016 'International Tables Vol C Tables 4.2.6.8 and 6.1.1.4'
H H 0.0000 0.0000 'International Tables Vol C Tables 4.2.6.8 and 6.1.1.4'
N N 0.0061 0.0033 'International Tables Vol C Tables 4.2.6.8 and 6.1.1.4'
O O 0.0106 0.0060 'International Tables Vol C Tables 4.2.6.8 and 6.1.1.4'
Cu Cu 0.3201 1.2651 'International Tables Vol C Tables 4.2.6.8 and 6.1.1.4'

_symmetry_cell_setting           Hexagonal
_symmetry_space_group_name_H-M   'R -3'

loop_
_symmetry_equiv_pos_as_xyz
'x, y, z'
'-y, x-y, z'
'-x+y, -x, z'
'x+2/3, y+1/3, z+1/3'
'-y+2/3, x-y+1/3, z+1/3'
'-x+y+2/3, -x+1/3, z+1/3'
'x+1/3, y+2/3, z+2/3'
'-y+1/3, x-y+2/3, z+2/3'
'-x+y+1/3, -x+2/3, z+2/3'
'-x, -y, -z'
'y, -x+y, -z'
'x-y, x, -z'
'-x+2/3, -y+1/3, -z+1/3'
'y+2/3, -x+y+1/3, -z+1/3'
'x-y+2/3, x+1/3, -z+1/3'
'-x+1/3, -y+2/3, -z+2/3'
'y+1/3, -x+y+2/3, -z+2/3'
'x-y+1/3, x+2/3, -z+2/3'

_cell_length_a                   25.293(8)
_cell_length_b                   25.293(8)
_cell_length_c                   54.096(17)
_cell_angle_alpha                90.00
_cell_angle_beta                 90.00
_cell_angle_gamma                120.00
_cell_volume                     29971(16)
_cell_formula_units_Z            3
_cell_measurement_temperature    213(2)
_cell_measurement_reflns_used    1853
_cell_measurement_theta_min      2.393
_cell_measurement_theta_max      23.263

_exptl_crystal_description       Block
_exptl_crystal_colour            Green
_exptl_crystal_size_max          0.16
_exptl_crystal_size_mid          0.14
_exptl_crystal_size_min          0.14
_exptl_crystal_density_meas      ?
_exptl_crystal_density_diffrn    0.729
_exptl_crystal_density_method    'not measured'
_exptl_crystal_F_000             6660
_exptl_absorpt_coefficient_mu    0.667
_exptl_absorpt_correction_type   Multi-Scan
_exptl_absorpt_correction_T_min  0.9723
_exptl_absorpt_correction_T_max  1.0000
_exptl_absorpt_process_details   SADABS

_exptl_special_details           
;
?
;

_diffrn_ambient_temperature      213(2)
_diffrn_radiation_wavelength     0.71073
_diffrn_radiation_type           MoK\a
_diffrn_radiation_source         'fine-focus sealed tube'
_diffrn_radiation_monochromator  graphite
_diffrn_measurement_device_type  'BRUKE SMART APEX'
_diffrn_measurement_method       'omega scans'
_diffrn_detector_area_resol_mean ?
_diffrn_reflns_number            35068
_diffrn_reflns_av_R_equivalents  0.1252
_diffrn_reflns_av_sigmaI/netI    0.2165
_diffrn_reflns_limit_h_min       -23
_diffrn_reflns_limit_h_max       30
_diffrn_reflns_limit_k_min       -30
_diffrn_reflns_limit_k_max       30
_diffrn_reflns_limit_l_min       -63
_diffrn_reflns_limit_l_max       54
_diffrn_reflns_theta_min         1.00
_diffrn_reflns_theta_max         25.38
_reflns_number_total             12132
_reflns_number_gt                4165
_reflns_threshold_expression     I>2sigma(I)

_computing_data_collection       'Bruker SMART'
_computing_cell_refinement       'Bruker SMART'
_computing_data_reduction        'Bruker SAINT'
_computing_structure_solution    'SHELXS-97 (Sheldrick, 1990)'
_computing_structure_refinement  'SHELXL-97 (Sheldrick, 1997)'
_computing_molecular_graphics    'Bruker SHELXTL'
_computing_publication_material  'Bruker SHELXTL'

_refine_special_details          
;
Refinement of F^2^ against ALL reflections. The weighted R-factor wR and
goodness of fit S are based on F^2^, conventional R-factors R are based
on F, with F set to zero for negative F^2^. The threshold expression of
F^2^ > 2sigma(F^2^) is used only for calculating R-factors(gt) etc. and is
not relevant to the choice of reflections for refinement. R-factors based
on F^2^ are statistically about twice as large as those based on F, and R-
factors based on ALL data will be even larger.
;

_refine_ls_structure_factor_coef Fsqd
_refine_ls_matrix_type           full
_refine_ls_weighting_scheme      calc
_refine_ls_weighting_details     
'calc w=1/[\s^2^(Fo^2^)+(0.0779P)^2^+0.0000P] where P=(Fo^2^+2Fc^2^)/3'
_atom_sites_solution_primary     direct
_atom_sites_solution_secondary   difmap
_atom_sites_solution_hydrogens   geom
_refine_ls_hydrogen_treatment    constr
_refine_ls_extinction_method     none
_refine_ls_extinction_coef       ?
_refine_ls_number_reflns         12132
_refine_ls_number_parameters     414
_refine_ls_number_restraints     0
_refine_ls_R_factor_all          0.1416
_refine_ls_R_factor_gt           0.0656
_refine_ls_wR_factor_ref         0.1874
_refine_ls_wR_factor_gt          0.1660
_refine_ls_goodness_of_fit_ref   0.752
_refine_ls_restrained_S_all      0.752
_refine_ls_shift/su_max          0.001
_refine_ls_shift/su_mean         0.000

loop_
_atom_site_label
_atom_site_type_symbol
_atom_site_fract_x
_atom_site_fract_y
_atom_site_fract_z
_atom_site_U_iso_or_equiv
_atom_site_adp_type
_atom_site_occupancy
_atom_site_symmetry_multiplicity
_atom_site_calc_flag
_atom_site_refinement_flags
_atom_site_disorder_assembly
_atom_site_disorder_group
Cu1 Cu 0.54575(3) 0.52069(3) 0.064219(14) 0.0485(2) Uani 1 1 d . . .
Cu2 Cu 0.48846(3) 0.56064(3) 0.092692(13) 0.0477(2) Uani 1 1 d . . .
O1 O 0.51384(16) 0.45321(16) 0.08884(8) 0.0584(11) Uani 1 1 d . . .
O2 O 0.46009(15) 0.48449(16) 0.11181(8) 0.0622(11) Uani 1 1 d . . .
O3 O 0.23512(16) 0.28458(16) 0.24804(8) 0.0590(11) Uani 1 1 d . . .
O4 O 0.26306(16) 0.36516(16) 0.22201(8) 0.0611(11) Uani 1 1 d . . .
O5 O 0.46731(15) 0.47949(16) 0.04684(8) 0.0630(12) Uani 1 1 d . . .
O6 O 0.42018(15) 0.51744(16) 0.06969(8) 0.0560(11) Uani 1 1 d . . .
O7 O 0.02711(15) 0.43165(15) 0.04435(7) 0.0565(11) Uani 1 1 d . . .
O8 O 0.10722(15) 0.47727(16) 0.06947(8) 0.0597(11) Uani 1 1 d . . .
O10 O 0.4462(3) 0.5984(3) 0.11579(16) 0.192(3) Uani 1 1 d . . .
N1 N 0.3977(2) 0.2453(2) 0.16966(11) 0.0848(19) Uani 1 1 d . . .
H1 H 0.4055 0.2155 0.1708 0.102 Uiso 1 1 calc R . .
N2 N 0.2160(2) 0.3764(2) -0.00975(10) 0.0726(16) Uani 1 1 d . . .
H2 H 0.2087 0.3573 -0.0238 0.087 Uiso 1 1 calc R . .
N3 N 0.5881(2) 0.48132(19) 0.04111(9) 0.0459(12) Uani 1 1 d . . .
C1 C 0.4793(2) 0.4474(2) 0.10645(12) 0.0510(16) Uani 1 1 d . . .
C2 C 0.4582(2) 0.3943(2) 0.12263(12) 0.0535(16) Uani 1 1 d . . .
C3 C 0.4781(2) 0.3509(3) 0.11820(12) 0.0562(16) Uani 1 1 d . . .
H3 H 0.5050 0.3578 0.1050 0.067 Uiso 1 1 calc R . .
C4 C 0.4595(3) 0.3006(3) 0.13226(13) 0.0704(19) Uani 1 1 d . . .
H4 H 0.4730 0.2728 0.1289 0.084 Uiso 1 1 calc R . .
C5 C 0.4213(3) 0.2909(3) 0.15119(14) 0.070(2) Uani 1 1 d . . .
C6 C 0.3990(3) 0.3334(2) 0.15779(13) 0.0606(18) Uani 1 1 d . . .
C7 C 0.4180(2) 0.3837(2) 0.14184(11) 0.0551(16) Uani 1 1 d . . .
H7 H 0.4030 0.4107 0.1443 0.066 Uiso 1 1 calc R . .
C8 C 0.3281(2) 0.3275(2) 0.19298(11) 0.0499(15) Uani 1 1 d . . .
H8 H 0.3268 0.3629 0.1887 0.060 Uiso 1 1 calc R . .
C9 C 0.3610(3) 0.3091(2) 0.17877(12) 0.0594(17) Uani 1 1 d . . .
C10 C 0.3611(3) 0.2545(3) 0.18539(14) 0.079(2) Uani 1 1 d . . .
C11 C 0.3290(3) 0.2205(3) 0.20622(14) 0.086(2) Uani 1 1 d . . .
H11 H 0.3297 0.1851 0.2109 0.104 Uiso 1 1 calc R . .
C12 C 0.2978(3) 0.2402(3) 0.21886(14) 0.079(2) Uani 1 1 d . . .
H12 H 0.2747 0.2170 0.2324 0.095 Uiso 1 1 calc R . .
C13 C 0.2973(3) 0.2945(3) 0.21311(12) 0.0599(17) Uani 1 1 d . . .
C14 C 0.2617(2) 0.3155(3) 0.22953(13) 0.0574(17) Uani 1 1 d . . .
C15 C 0.4230(2) 0.4866(2) 0.05207(11) 0.0460(15) Uani 1 1 d . . .
C16 C 0.3682(2) 0.4569(2) 0.03507(11) 0.0479(14) Uani 1 1 d . . .
C17 C 0.3723(3) 0.4279(3) 0.01455(12) 0.0556(16) Uani 1 1 d . . .
H17 H 0.4080 0.4261 0.0118 0.067 Uiso 1 1 calc R . .
C18 C 0.3230(3) 0.3999(3) -0.00304(14) 0.077(2) Uani 1 1 d . . .
H18 H 0.3264 0.3825 -0.0179 0.093 Uiso 1 1 calc R . .
C19 C 0.2687(3) 0.4004(3) 0.00366(14) 0.0667(19) Uani 1 1 d . . .
C20 C 0.2657(2) 0.4300(2) 0.02548(11) 0.0504(15) Uani 1 1 d . . .
C21 C 0.3166(2) 0.4584(2) 0.04056(11) 0.0496(15) Uani 1 1 d . . .
H21 H 0.3155 0.4791 0.0548 0.060 Uiso 1 1 calc R . .
C22 C 0.1746(2) 0.4428(2) 0.04022(11) 0.0458(14) Uani 1 1 d . . .
H22 H 0.1942 0.4671 0.0541 0.055 Uiso 1 1 calc R . .
C23 C 0.2050(2) 0.4230(2) 0.02569(12) 0.0512(16) Uani 1 1 d . . .
C24 C 0.1766(3) 0.3887(3) 0.00364(13) 0.0634(17) Uani 1 1 d . . .
C25 C 0.1156(3) 0.3718(3) -0.00213(13) 0.0701(19) Uani 1 1 d . . .
H25 H 0.0957 0.3485 -0.0162 0.084 Uiso 1 1 calc R . .
C26 C 0.0869(2) 0.3918(3) 0.01431(12) 0.0553(16) Uani 1 1 d . . .
H26 H 0.0460 0.3803 0.0113 0.066 Uiso 1 1 calc R . .
C27 C 0.1154(2) 0.4279(2) 0.03495(11) 0.0465(14) Uani 1 1 d . . .
C28 C 0.0809(3) 0.4476(2) 0.05084(12) 0.0508(16) Uani 1 1 d . . .
C29 C 0.5599(3) 0.4505(3) 0.02211(15) 0.080(2) Uani 1 1 d . . .
H29 H 0.5216 0.4463 0.0186 0.096 Uiso 1 1 calc R . .
C30 C 0.5825(3) 0.4209(3) 0.00530(14) 0.079(2) Uani 1 1 d . . .
H30 H 0.5615 0.3996 -0.0090 0.095 Uiso 1 1 calc R . .
C31 C 0.6373(4) 0.4272(3) 0.01242(16) 0.105(3) Uiso 1 1 d . . .
H31 H 0.6548 0.4093 0.0026 0.126 Uiso 1 1 calc R . .
C32 C 0.6687(4) 0.4598(3) 0.03409(17) 0.113(3) Uiso 1 1 d . . .
H32 H 0.7062 0.4641 0.0391 0.136 Uiso 1 1 calc R . .
C33 C 0.6388(3) 0.4852(3) 0.04737(13) 0.080(2) Uani 1 1 d . . .
H33 H 0.6575 0.5067 0.0619 0.096 Uiso 1 1 calc R . .
H10A H 0.4130 0.5963 0.1118 0.096 Uiso 1 1 d R . .
H10B H 0.4620 0.6289 0.1259 0.096 Uiso 1 1 d R . .

loop_
_atom_site_aniso_label
_atom_site_aniso_U_11
_atom_site_aniso_U_22
_atom_site_aniso_U_33
_atom_site_aniso_U_23
_atom_site_aniso_U_13
_atom_site_aniso_U_12
Cu1 0.0455(4) 0.0465(4) 0.0583(5) -0.0058(4) 0.0058(4) 0.0265(3)
Cu2 0.0451(4) 0.0489(4) 0.0541(5) -0.0039(4) 0.0039(4) 0.0273(3)
O1 0.058(2) 0.066(3) 0.060(3) 0.006(2) 0.019(2) 0.037(2)
O2 0.051(2) 0.056(2) 0.081(3) 0.008(2) 0.020(2) 0.028(2)
O3 0.064(2) 0.059(2) 0.060(3) 0.028(2) 0.030(2) 0.035(2)
O4 0.062(2) 0.054(2) 0.076(3) 0.017(2) 0.016(2) 0.036(2)
O5 0.046(2) 0.061(2) 0.098(4) -0.016(2) -0.002(2) 0.038(2)
O6 0.059(2) 0.064(2) 0.057(3) -0.014(2) 0.000(2) 0.040(2)
O7 0.030(2) 0.061(2) 0.077(3) -0.002(2) -0.010(2) 0.0218(18)
O8 0.039(2) 0.063(2) 0.077(3) -0.015(2) -0.011(2) 0.0259(19)
O10 0.163(6) 0.216(7) 0.260(9) -0.007(6) 0.071(6) 0.141(6)
N1 0.100(4) 0.073(4) 0.106(5) 0.034(4) 0.048(4) 0.061(3)
N2 0.058(3) 0.108(4) 0.058(4) -0.035(3) -0.012(3) 0.046(3)
N3 0.052(3) 0.048(3) 0.046(4) -0.005(2) 0.006(3) 0.031(2)
C1 0.034(3) 0.054(4) 0.066(5) 0.010(3) 0.005(3) 0.023(3)
C2 0.045(3) 0.057(4) 0.062(5) -0.001(3) 0.009(3) 0.028(3)
C3 0.061(4) 0.067(4) 0.061(5) 0.011(4) 0.017(3) 0.047(3)
C4 0.081(5) 0.078(5) 0.075(6) 0.010(4) 0.019(4) 0.057(4)
C5 0.069(4) 0.048(4) 0.095(6) 0.012(4) 0.016(4) 0.031(3)
C6 0.066(4) 0.047(3) 0.084(6) 0.005(4) 0.024(4) 0.040(3)
C7 0.070(4) 0.059(4) 0.056(5) 0.004(3) 0.003(3) 0.047(3)
C8 0.060(4) 0.038(3) 0.062(5) 0.009(3) 0.012(3) 0.033(3)
C9 0.064(4) 0.041(3) 0.070(5) 0.015(3) 0.022(4) 0.024(3)
C10 0.099(5) 0.069(5) 0.088(6) 0.017(4) 0.036(5) 0.057(4)
C11 0.116(6) 0.065(4) 0.101(7) 0.036(4) 0.064(5) 0.062(4)
C12 0.082(5) 0.065(4) 0.098(6) 0.057(4) 0.046(4) 0.043(4)
C13 0.080(4) 0.056(4) 0.059(5) 0.018(3) 0.032(4) 0.046(3)
C14 0.046(3) 0.056(4) 0.066(5) 0.009(4) 0.007(3) 0.022(3)
C15 0.048(3) 0.039(3) 0.055(4) -0.002(3) 0.012(3) 0.025(3)
C16 0.055(4) 0.059(4) 0.040(4) -0.007(3) -0.002(3) 0.036(3)
C17 0.056(4) 0.067(4) 0.055(5) -0.006(3) 0.008(3) 0.039(3)
C18 0.061(4) 0.084(5) 0.100(6) -0.013(4) 0.005(4) 0.046(4)
C19 0.057(4) 0.056(4) 0.093(6) -0.010(4) 0.001(4) 0.033(3)
C20 0.054(4) 0.055(3) 0.056(5) -0.005(3) 0.000(3) 0.037(3)
C21 0.039(3) 0.057(3) 0.064(5) -0.013(3) -0.005(3) 0.033(3)
C22 0.034(3) 0.048(3) 0.047(4) -0.003(3) -0.008(3) 0.015(3)
C23 0.046(3) 0.040(3) 0.069(5) -0.009(3) -0.002(3) 0.022(3)
C24 0.064(4) 0.069(4) 0.061(5) -0.003(4) 0.001(4) 0.037(3)
C25 0.061(4) 0.084(4) 0.072(5) -0.019(4) -0.031(4) 0.042(4)
C26 0.032(3) 0.074(4) 0.060(5) 0.000(4) -0.005(3) 0.027(3)
C27 0.046(3) 0.060(4) 0.037(4) -0.004(3) 0.004(3) 0.029(3)
C28 0.042(4) 0.046(3) 0.050(5) -0.004(3) -0.015(3) 0.011(3)
C29 0.066(4) 0.055(4) 0.115(7) -0.027(4) 0.007(5) 0.028(4)
C30 0.068(4) 0.087(5) 0.090(6) -0.036(4) -0.018(4) 0.044(4)
C33 0.085(5) 0.123(6) 0.072(5) -0.043(4) -0.011(4) 0.081(5)

_geom_special_details            
;
All esds (except the esd in the dihedral angle between two l.s. planes)
are estimated using the full covariance matrix. The cell esds are taken
into account individually in the estimation of esds in distances, angles
and torsion angles; correlations between esds in cell parameters are only
used when they are defined by crystal symmetry. An approximate (isotropic)
treatment of cell esds is used for estimating esds involving l.s. planes.
;

loop_
_geom_bond_atom_site_label_1
_geom_bond_atom_site_label_2
_geom_bond_distance
_geom_bond_site_symmetry_2
_geom_bond_publ_flag
Cu1 O5 1.959(4) . ?
Cu1 O3 1.960(4) 15 ?
Cu1 O1 1.990(4) . ?
Cu1 O7 1.995(4) 2_665 ?
Cu1 N3 2.183(4) . ?
Cu1 Cu2 2.6377(10) . ?
Cu2 O4 1.949(4) 15 ?
Cu2 O6 1.959(4) . ?
Cu2 O8 1.971(4) 2_665 ?
Cu2 O2 1.978(4) . ?
Cu2 O10 2.153(6) . ?
O1 C1 1.250(6) . ?
O2 C1 1.287(6) . ?
O3 C14 1.241(7) . ?
O3 Cu1 1.960(4) 14_455 ?
O4 C14 1.304(6) . ?
O4 Cu2 1.949(4) 14_455 ?
O5 C15 1.254(5) . ?
O6 C15 1.256(6) . ?
O7 C28 1.261(6) . ?
O7 Cu1 1.994(4) 3_565 ?
O8 C28 1.234(6) . ?
O8 Cu2 1.971(4) 3_565 ?
O10 H10A 0.8436 . ?
O10 H10B 0.8625 . ?
N1 C10 1.362(7) . ?
N1 C5 1.414(8) . ?
N1 H1 0.8700 . ?
N2 C19 1.364(7) . ?
N2 C24 1.387(7) . ?
N2 H2 0.8700 . ?
N3 C29 1.272(7) . ?
N3 C33 1.282(6) . ?
C1 C2 1.462(7) . ?
C2 C7 1.384(7) . ?
C2 C3 1.437(7) . ?
C3 C4 1.349(7) . ?
C3 H3 0.9400 . ?
C4 C5 1.344(8) . ?
C4 H4 0.9400 . ?
C5 C6 1.485(7) . ?
C6 C7 1.408(7) . ?
C6 C9 1.414(8) . ?
C7 H7 0.9400 . ?
C8 C13 1.356(7) . ?
C8 C9 1.374(7) . ?
C8 H8 0.9400 . ?
C9 C10 1.427(7) . ?
C10 C11 1.404(8) . ?
C11 C12 1.315(8) . ?
C11 H11 0.9400 . ?
C12 C13 1.413(7) . ?
C12 H12 0.9400 . ?
C13 C14 1.537(8) . ?
C15 C16 1.513(7) . ?
C16 C21 1.356(6) . ?
C16 C17 1.363(7) . ?
C17 C18 1.441(8) . ?
C17 H17 0.9400 . ?
C18 C19 1.426(7) . ?
C18 H18 0.9400 . ?
C19 C20 1.421(8) . ?
C20 C21 1.385(7) . ?
C20 C23 1.454(7) . ?
C21 H21 0.9400 . ?
C22 C23 1.359(7) . ?
C22 C27 1.379(6) . ?
C22 H22 0.9400 . ?
C23 C24 1.438(8) . ?
C24 C25 1.414(7) . ?
C25 C26 1.394(8) . ?
C25 H25 0.9400 . ?
C26 C27 1.393(7) . ?
C26 H26 0.9400 . ?
C27 C28 1.477(7) . ?
C29 C30 1.464(8) . ?
C29 H29 0.9400 . ?
C30 C31 1.366(9) . ?
C30 H30 0.9400 . ?
C31 C32 1.426(10) . ?
C31 H31 0.9400 . ?
C32 C33 1.409(9) . ?
C32 H32 0.9400 . ?
C33 H33 0.9400 . ?

loop_
_geom_angle_atom_site_label_1
_geom_angle_atom_site_label_2
_geom_angle_atom_site_label_3
_geom_angle
_geom_angle_site_symmetry_1
_geom_angle_site_symmetry_3
_geom_angle_publ_flag
O5 Cu1 O3 169.51(15) . 15 ?
O5 Cu1 O1 89.79(16) . . ?
O3 Cu1 O1 89.59(17) 15 . ?
O5 Cu1 O7 88.83(15) . 2_665 ?
O3 Cu1 O7 89.44(16) 15 2_665 ?
O1 Cu1 O7 167.14(15) . 2_665 ?
O5 Cu1 N3 94.57(17) . . ?
O3 Cu1 N3 95.91(17) 15 . ?
O1 Cu1 N3 94.20(16) . . ?
O7 Cu1 N3 98.66(16) 2_665 . ?
O5 Cu1 Cu2 83.09(11) . . ?
O3 Cu1 Cu2 86.44(11) 15 . ?
O1 Cu1 Cu2 82.69(11) . . ?
O7 Cu1 Cu2 84.45(11) 2_665 . ?
N3 Cu1 Cu2 176.10(12) . . ?
O4 Cu2 O6 167.97(16) 15 . ?
O4 Cu2 O8 91.35(16) 15 2_665 ?
O6 Cu2 O8 87.96(16) . 2_665 ?
O4 Cu2 O2 88.56(16) 15 . ?
O6 Cu2 O2 89.97(16) . . ?
O8 Cu2 O2 169.64(16) 2_665 . ?
O4 Cu2 O10 95.0(2) 15 . ?
O6 Cu2 O10 97.0(2) . . ?
O8 Cu2 O10 94.0(2) 2_665 . ?
O2 Cu2 O10 96.3(2) . . ?
O4 Cu2 Cu1 82.84(11) 15 . ?
O6 Cu2 Cu1 85.14(11) . . ?
O8 Cu2 Cu1 83.52(11) 2_665 . ?
O2 Cu2 Cu1 86.19(11) . . ?
O10 Cu2 Cu1 176.7(2) . . ?
C1 O1 Cu1 124.8(3) . . ?
C1 O2 Cu2 120.4(4) . . ?
C14 O3 Cu1 119.9(4) . 14_455 ?
C14 O4 Cu2 123.2(4) . 14_455 ?
C15 O5 Cu1 123.8(4) . . ?
C15 O6 Cu2 121.4(3) . . ?
C28 O7 Cu1 121.4(4) . 3_565 ?
C28 O8 Cu2 124.3(4) . 3_565 ?
Cu2 O10 H10A 121.5 . . ?
Cu2 O10 H10B 130.9 . . ?
H10A O10 H10B 102.8 . . ?
C10 N1 C5 110.3(5) . . ?
C10 N1 H1 124.9 . . ?
C5 N1 H1 124.9 . . ?
C19 N2 C24 105.9(5) . . ?
C19 N2 H2 127.0 . . ?
C24 N2 H2 127.0 . . ?
C29 N3 C33 119.5(5) . . ?
C29 N3 Cu1 119.4(4) . . ?
C33 N3 Cu1 120.9(4) . . ?
O1 C1 O2 125.6(5) . . ?
O1 C1 C2 118.5(5) . . ?
O2 C1 C2 115.9(5) . . ?
C7 C2 C3 118.8(5) . . ?
C7 C2 C1 121.5(5) . . ?
C3 C2 C1 119.7(5) . . ?
C4 C3 C2 122.4(6) . . ?
C4 C3 H3 118.8 . . ?
C2 C3 H3 118.8 . . ?
C5 C4 C3 118.7(6) . . ?
C5 C4 H4 120.6 . . ?
C3 C4 H4 120.6 . . ?
C4 C5 N1 131.1(6) . . ?
C4 C5 C6 123.4(6) . . ?
N1 C5 C6 105.3(6) . . ?
C7 C6 C9 137.4(5) . . ?
C7 C6 C5 115.1(6) . . ?
C9 C6 C5 107.4(5) . . ?
C2 C7 C6 121.4(5) . . ?
C2 C7 H7 119.3 . . ?
C6 C7 H7 119.3 . . ?
C13 C8 C9 119.9(5) . . ?
C13 C8 H8 120.0 . . ?
C9 C8 H8 120.0 . . ?
C8 C9 C6 134.2(5) . . ?
C8 C9 C10 118.8(6) . . ?
C6 C9 C10 107.1(5) . . ?
N1 C10 C11 129.1(6) . . ?
N1 C10 C9 109.8(6) . . ?
C11 C10 C9 120.9(6) . . ?
C12 C11 C10 117.2(6) . . ?
C12 C11 H11 121.4 . . ?
C10 C11 H11 121.4 . . ?
C11 C12 C13 123.5(6) . . ?
C11 C12 H12 118.3 . . ?
C13 C12 H12 118.3 . . ?
C8 C13 C12 119.6(5) . . ?
C8 C13 C14 120.4(5) . . ?
C12 C13 C14 120.0(5) . . ?
O3 C14 O4 127.1(5) . . ?
O3 C14 C13 118.3(5) . . ?
O4 C14 C13 114.5(5) . . ?
O5 C15 O6 126.3(5) . . ?
O5 C15 C16 117.1(5) . . ?
O6 C15 C16 116.6(5) . . ?
C21 C16 C17 121.8(5) . . ?
C21 C16 C15 120.5(5) . . ?
C17 C16 C15 117.7(5) . . ?
C16 C17 C18 121.5(5) . . ?
C16 C17 H17 119.2 . . ?
C18 C17 H17 119.2 . . ?
C19 C18 C17 115.3(6) . . ?
C19 C18 H18 122.4 . . ?
C17 C18 H18 122.4 . . ?
N2 C19 C20 112.1(5) . . ?
N2 C19 C18 126.3(6) . . ?
C20 C19 C18 121.5(6) . . ?
C21 C20 C19 118.7(5) . . ?
C21 C20 C23 135.3(5) . . ?
C19 C20 C23 105.9(5) . . ?
C16 C21 C20 121.0(5) . . ?
C16 C21 H21 119.5 . . ?
C20 C21 H21 119.5 . . ?
C23 C22 C27 121.1(5) . . ?
C23 C22 H22 119.4 . . ?
C27 C22 H22 119.4 . . ?
C22 C23 C24 119.9(5) . . ?
C22 C23 C20 135.8(6) . . ?
C24 C23 C20 104.2(5) . . ?
N2 C24 C25 127.9(6) . . ?
N2 C24 C23 111.8(5) . . ?
C25 C24 C23 120.3(6) . . ?
C26 C25 C24 115.9(6) . . ?
C26 C25 H25 122.1 . . ?
C24 C25 H25 122.1 . . ?
C27 C26 C25 123.9(5) . . ?
C27 C26 H26 118.0 . . ?
C25 C26 H26 118.0 . . ?
C22 C27 C26 118.6(5) . . ?
C22 C27 C28 122.0(5) . . ?
C26 C27 C28 119.3(5) . . ?
O8 C28 O7 126.1(6) . . ?
O8 C28 C27 116.8(5) . . ?
O7 C28 C27 117.0(5) . . ?
N3 C29 C30 125.0(6) . . ?
N3 C29 H29 117.5 . . ?
C30 C29 H29 117.5 . . ?
C31 C30 C29 113.4(7) . . ?
C31 C30 H30 123.3 . . ?
C29 C30 H30 123.3 . . ?
C30 C31 C32 122.6(8) . . ?
C30 C31 H31 118.7 . . ?
C32 C31 H31 118.7 . . ?
C33 C32 C31 114.3(8) . . ?
C33 C32 H32 122.8 . . ?
C31 C32 H32 122.8 . . ?
N3 C33 C32 125.1(7) . . ?
N3 C33 H33 117.5 . . ?
C32 C33 H33 117.5 . . ?

loop_
_geom_torsion_atom_site_label_1
_geom_torsion_atom_site_label_2
_geom_torsion_atom_site_label_3
_geom_torsion_atom_site_label_4
_geom_torsion
_geom_torsion_site_symmetry_1
_geom_torsion_site_symmetry_2
_geom_torsion_site_symmetry_3
_geom_torsion_site_symmetry_4
_geom_torsion_publ_flag
O5 Cu1 Cu2 O4 175.96(17) . . . 15 ?
O3 Cu1 Cu2 O4 -4.76(17) 15 . . 15 ?
O1 Cu1 Cu2 O4 85.28(16) . . . 15 ?
O7 Cu1 Cu2 O4 -94.55(16) 2_665 . . 15 ?
N3 Cu1 Cu2 O4 123(2) . . . 15 ?
O5 Cu1 Cu2 O6 -3.36(16) . . . . ?
O3 Cu1 Cu2 O6 175.91(17) 15 . . . ?
O1 Cu1 Cu2 O6 -94.04(16) . . . . ?
O7 Cu1 Cu2 O6 86.13(16) 2_665 . . . ?
N3 Cu1 Cu2 O6 -57(2) . . . . ?
O5 Cu1 Cu2 O8 -91.85(17) . . . 2_665 ?
O3 Cu1 Cu2 O8 87.43(17) 15 . . 2_665 ?
O1 Cu1 Cu2 O8 177.47(16) . . . 2_665 ?
O7 Cu1 Cu2 O8 -2.36(16) 2_665 . . 2_665 ?
N3 Cu1 Cu2 O8 -145(2) . . . 2_665 ?
O5 Cu1 Cu2 O2 86.94(16) . . . . ?
O3 Cu1 Cu2 O2 -93.79(17) 15 . . . ?
O1 Cu1 Cu2 O2 -3.74(16) . . . . ?
O7 Cu1 Cu2 O2 176.43(16) 2_665 . . . ?
N3 Cu1 Cu2 O2 34(2) . . . . ?
O5 Cu1 Cu2 O10 -134(4) . . . . ?
O3 Cu1 Cu2 O10 46(4) 15 . . . ?
O1 Cu1 Cu2 O10 136(4) . . . . ?
O7 Cu1 Cu2 O10 -44(4) 2_665 . . . ?
N3 Cu1 Cu2 O10 173(5) . . . . ?
O5 Cu1 O1 C1 -79.0(5) . . . . ?
O3 Cu1 O1 C1 90.5(5) 15 . . . ?
O7 Cu1 O1 C1 4.8(10) 2_665 . . . ?
N3 Cu1 O1 C1 -173.6(5) . . . . ?
Cu2 Cu1 O1 C1 4.1(4) . . . . ?
O4 Cu2 O2 C1 -78.1(4) 15 . . . ?
O6 Cu2 O2 C1 90.0(4) . . . . ?
O8 Cu2 O2 C1 11.6(11) 2_665 . . . ?
O10 Cu2 O2 C1 -173.0(5) . . . . ?
Cu1 Cu2 O2 C1 4.8(4) . . . . ?
O3 Cu1 O5 C15 1.0(12) 15 . . . ?
O1 Cu1 O5 C15 87.6(4) . . . . ?
O7 Cu1 O5 C15 -79.6(4) 2_665 . . . ?
N3 Cu1 O5 C15 -178.2(4) . . . . ?
Cu2 Cu1 O5 C15 5.0(4) . . . . ?
O4 Cu2 O6 C15 -0.2(10) 15 . . . ?
O8 Cu2 O6 C15 86.7(4) 2_665 . . . ?
O2 Cu2 O6 C15 -83.1(4) . . . . ?
O10 Cu2 O6 C15 -179.5(4) . . . . ?
Cu1 Cu2 O6 C15 3.0(4) . . . . ?
O5 Cu1 N3 C29 7.6(5) . . . . ?
O3 Cu1 N3 C29 -172.3(5) 15 . . . ?
O1 Cu1 N3 C29 97.7(5) . . . . ?
O7 Cu1 N3 C29 -81.9(5) 2_665 . . . ?
Cu2 Cu1 N3 C29 61(2) . . . . ?
O5 Cu1 N3 C33 -167.5(5) . . . . ?
O3 Cu1 N3 C33 12.6(5) 15 . . . ?
O1 Cu1 N3 C33 -77.4(5) . . . . ?
O7 Cu1 N3 C33 103.0(5) 2_665 . . . ?
Cu2 Cu1 N3 C33 -114(2) . . . . ?
Cu1 O1 C1 O2 -1.7(8) . . . . ?
Cu1 O1 C1 C2 178.3(4) . . . . ?
Cu2 O2 C1 O1 -3.5(8) . . . . ?
Cu2 O2 C1 C2 176.6(4) . . . . ?
O1 C1 C2 C7 -177.3(5) . . . . ?
O2 C1 C2 C7 2.6(8) . . . . ?
O1 C1 C2 C3 0.9(8) . . . . ?
O2 C1 C2 C3 -179.2(5) . . . . ?
C7 C2 C3 C4 -0.8(9) . . . . ?
C1 C2 C3 C4 -179.0(6) . . . . ?
C2 C3 C4 C5 -0.4(10) . . . . ?
C3 C4 C5 N1 -175.5(6) . . . . ?
C3 C4 C5 C6 -1.0(11) . . . . ?
C10 N1 C5 C4 178.9(7) . . . . ?
C10 N1 C5 C6 3.8(8) . . . . ?
C4 C5 C6 C7 3.5(10) . . . . ?
N1 C5 C6 C7 179.1(5) . . . . ?
C4 C5 C6 C9 -178.9(6) . . . . ?
N1 C5 C6 C9 -3.2(7) . . . . ?
C3 C2 C7 C6 3.5(9) . . . . ?
C1 C2 C7 C6 -178.3(5) . . . . ?
C9 C6 C7 C2 178.7(7) . . . . ?
C5 C6 C7 C2 -4.6(9) . . . . ?
C13 C8 C9 C6 -177.1(7) . . . . ?
C13 C8 C9 C10 1.2(9) . . . . ?
C7 C6 C9 C8 -3.1(14) . . . . ?
C5 C6 C9 C8 -180.0(7) . . . . ?
C7 C6 C9 C10 178.4(7) . . . . ?
C5 C6 C9 C10 1.6(7) . . . . ?
C5 N1 C10 C11 -179.6(7) . . . . ?
C5 N1 C10 C9 -2.9(8) . . . . ?
C8 C9 C10 N1 -178.0(6) . . . . ?
C6 C9 C10 N1 0.8(8) . . . . ?
C8 C9 C10 C11 -1.0(10) . . . . ?
C6 C9 C10 C11 177.7(7) . . . . ?
N1 C10 C11 C12 178.1(8) . . . . ?
C9 C10 C11 C12 1.7(11) . . . . ?
C10 C11 C12 C13 -2.7(12) . . . . ?
C9 C8 C13 C12 -2.0(9) . . . . ?
C9 C8 C13 C14 178.4(5) . . . . ?
C11 C12 C13 C8 3.0(11) . . . . ?
C11 C12 C13 C14 -177.5(7) . . . . ?
Cu1 O3 C14 O4 1.4(8) 14_455 . . . ?
Cu1 O3 C14 C13 -178.5(4) 14_455 . . . ?
Cu2 O4 C14 O3 5.1(8) 14_455 . . . ?
Cu2 O4 C14 C13 -175.0(4) 14_455 . . . ?
C8 C13 C14 O3 -178.7(6) . . . . ?
C12 C13 C14 O3 1.8(9) . . . . ?
C8 C13 C14 O4 1.4(8) . . . . ?
C12 C13 C14 O4 -178.1(6) . . . . ?
Cu1 O5 C15 O6 -4.5(8) . . . . ?
Cu1 O5 C15 C16 173.4(3) . . . . ?
Cu2 O6 C15 O5 -0.2(8) . . . . ?
Cu2 O6 C15 C16 -178.1(3) . . . . ?
O5 C15 C16 C21 174.7(5) . . . . ?
O6 C15 C16 C21 -7.1(8) . . . . ?
O5 C15 C16 C17 -3.9(8) . . . . ?
O6 C15 C16 C17 174.2(5) . . . . ?
C21 C16 C17 C18 3.2(9) . . . . ?
C15 C16 C17 C18 -178.2(5) . . . . ?
C16 C17 C18 C19 -5.1(9) . . . . ?
C24 N2 C19 C20 -1.6(7) . . . . ?
C24 N2 C19 C18 -178.7(6) . . . . ?
C17 C18 C19 N2 -179.4(6) . . . . ?
C17 C18 C19 C20 3.8(9) . . . . ?
N2 C19 C20 C21 -177.8(5) . . . . ?
C18 C19 C20 C21 -0.6(9) . . . . ?
N2 C19 C20 C23 0.8(7) . . . . ?
C18 C19 C20 C23 178.0(6) . . . . ?
C17 C16 C21 C20 0.4(9) . . . . ?
C15 C16 C21 C20 -178.3(5) . . . . ?
C19 C20 C21 C16 -1.6(8) . . . . ?
C23 C20 C21 C16 -179.7(6) . . . . ?
C27 C22 C23 C24 3.6(8) . . . . ?
C27 C22 C23 C20 179.2(6) . . . . ?
C21 C20 C23 C22 2.5(12) . . . . ?
C19 C20 C23 C22 -175.7(6) . . . . ?
C21 C20 C23 C24 178.6(6) . . . . ?
C19 C20 C23 C24 0.4(6) . . . . ?
C19 N2 C24 C25 -178.2(6) . . . . ?
C19 N2 C24 C23 1.9(7) . . . . ?
C22 C23 C24 N2 175.4(5) . . . . ?
C20 C23 C24 N2 -1.4(7) . . . . ?
C22 C23 C24 C25 -4.5(9) . . . . ?
C20 C23 C24 C25 178.6(5) . . . . ?
N2 C24 C25 C26 -178.2(6) . . . . ?
C23 C24 C25 C26 1.7(9) . . . . ?
C24 C25 C26 C27 1.9(9) . . . . ?
C23 C22 C27 C26 0.0(8) . . . . ?
C23 C22 C27 C28 178.4(5) . . . . ?
C25 C26 C27 C22 -2.9(9) . . . . ?
C25 C26 C27 C28 178.7(5) . . . . ?
Cu2 O8 C28 O7 -4.1(8) 3_565 . . . ?
Cu2 O8 C28 C27 177.3(3) 3_565 . . . ?
Cu1 O7 C28 O8 0.7(8) 3_565 . . . ?
Cu1 O7 C28 C27 179.3(3) 3_565 . . . ?
C22 C27 C28 O8 -1.4(8) . . . . ?
C26 C27 C28 O8 177.0(5) . . . . ?
C22 C27 C28 O7 179.9(5) . . . . ?
C26 C27 C28 O7 -1.8(8) . . . . ?
C33 N3 C29 C30 -3.9(10) . . . . ?
Cu1 N3 C29 C30 -179.0(5) . . . . ?
N3 C29 C30 C31 2.5(10) . . . . ?
C29 C30 C31 C32 -0.3(11) . . . . ?
C30 C31 C32 C33 -0.4(12) . . . . ?
C29 N3 C33 C32 3.0(11) . . . . ?
Cu1 N3 C33 C32 178.1(6) . . . . ?
C31 C32 C33 N3 -0.9(11) . . . . ?

_diffrn_measured_fraction_theta_max 0.991
_diffrn_reflns_theta_full        25.38
_diffrn_measured_fraction_theta_full 0.991
_refine_diff_density_max         1.036
_refine_diff_density_min         -0.419
_refine_diff_density_rms         0.073
