
#######################################################################
#
#                 Cambridge Crystallographic Data Centre
#                                CCDC 
#
#######################################################################
#
# If this CIF has been generated from an entry in the Cambridge 
# Structural Database, then it will include bibliographic, chemical, 
# crystal, experimental, refinement or atomic coordinate data resulting 
# from the CCDC's data processing and validation procedures.
#
#######################################################################

data_INAGUA
_chemical_formula_moiety         
'C36 H42 N20 O10,2(K1 1+),2(Cl1 1-),16.8(H2 O1)'
_chemical_name_systematic        
'di-potassium 1,1,2,2,4,4-hexamethylcucurbit[5]uril dichloride hydrate'
_symmetry_cell_setting           cubic
_symmetry_space_group_name_H-M   'P a -3'
_symmetry_Int_Tables_number      205
_space_group_name_Hall           '-P 2ac 2ab 3'
loop_
_symmetry_equiv_pos_site_id
_symmetry_equiv_pos_as_xyz
1 x,y,z
2 1/2-x,-y,1/2+z
3 -x,1/2+y,1/2-z
4 1/2+x,1/2-y,-z
5 z,x,y
6 1/2+z,1/2-x,-y
7 1/2-z,-x,1/2+y
8 -z,1/2+x,1/2-y
9 y,z,x
10 -y,1/2+z,1/2-x
11 1/2+y,1/2-z,-x
12 1/2-y,-z,1/2+x
13 -x,-y,-z
14 1/2+x,y,1/2-z
15 x,1/2-y,1/2+z
16 1/2-x,1/2+y,z
17 -z,-x,-y
18 1/2-z,1/2+x,y
19 1/2+z,x,1/2-y
20 z,1/2-x,1/2+y
21 -y,-z,-x
22 y,1/2-z,1/2+x
23 1/2-y,1/2+z,x
24 1/2+y,z,1/2-x
_cell_length_a                   32.952(1)
_cell_length_b                   32.952(1)
_cell_length_c                   32.952(1)
_cell_angle_alpha                90
_cell_angle_beta                 90
_cell_angle_gamma                90
_cell_volume                     35780.4
_exptl_crystal_colour            colorless
_exptl_crystal_description       block
_cell_formula_units_Z            24
loop_
_atom_site_label
_atom_site_type_symbol
_atom_site_fract_x
_atom_site_fract_y
_atom_site_fract_z
O1 O 0.36903(14) 0.63097(14) 1.13097(14)
O2 O 0.1762(2) 0.6762(2) 0.8238(2)
O3 O 0.1190(2) 0.6190(2) 0.8810(2)
O4 O 0.2333(3) 0.82085(16) 1.1057(2)
O5 O 0.4258(2) 0.5742(2) 1.0742(2)
O6 O 0.3728(3) 0.5331(3) 0.8120(3)
O7 O 0.4011(3) 0.4870(4) 1.0196(3)
O8 O 0.1912(3) 0.4065(2) 1.0406(3)
O9 O 0.1786(3) 0.3636(4) 0.9086(5)
O10 O 0.4541(3) 0.6159(5) 0.9062(4)
O11 O 0.1451(3) 0.6334(5) 1.1887(3)
O12 O 0.2637(4) 0.6271(4) 0.9902(4)
O13 O 0.4357(3) 0.5524(3) 0.8696(5)
O14 O 0.2225(5) 0.7679(10) 0.8587(5)
O15 O 0.0270(5) 0.5660(4) 1.0399(5)
O16 O 0.1583(4) 0.7949(3) 1.1345(6)
O17 O 0.2851(4) 0.7311(5) 0.7551(10)
O18 O 0.2472(9) 0.7101(9) 1.1851(5)
O19 O 0.2994(6) 0.7006(6) 1.2006(6)
O20 O 0.0563(4) 0.5563(4) 0.9437(4)
O21 O 0.4798(5) 0.5202(5) 1.0202(5)
O22 O 0.2397(8) 0.8472(9) 0.9144(10)
Cl1 Cl 0.1409(2) 0.4024(2) 0.9662(2)
Cl2 Cl 0.4532(2) 0.7212(3) 0.8891(2)
C1 C 0.2924(2) 0.6500(2) 0.88060(19)
C2 C 0.35929(19) 0.6525(2) 0.9047(2)
H1 H 0.3812 0.6634 0.8878
C3 C 0.3483(2) 0.6078(2) 0.8924(2)
H2 H 0.3662 0.5975 0.8710
C4 C 0.36977(19) 0.6089(2) 0.9602(2)
C5 C 0.2842(2) 0.5767(2) 0.8634(2)
H3 H 0.3021 0.5587 0.8485
H4 H 0.2635 0.5864 0.8448
C6 C 0.3530(2) 0.54125(19) 0.9330(2)
H5 H 0.3613 0.5298 0.9072
H6 H 0.3725 0.5328 0.9533
C7 C 0.2253(2) 0.5608(2) 0.9067(2)
C8 C 0.2804(2) 0.5175(2) 0.9144(2)
C9 C 0.2443(2) 0.50335(19) 0.9428(2)
C10 C 0.3018(2) 0.51943(18) 0.9828(2)
C11 C 0.1725(2) 0.5328(2) 0.9497(2)
H7 H 0.1638 0.5049 0.9531
H8 H 0.1549 0.5452 0.9296
C12 C 0.2416(2) 0.4965(2) 1.0206(2)
H9 H 0.2618 0.4884 1.0404
H10 H 0.2245 0.4731 1.0151
C13 C 0.15381(19) 0.5931(2) 0.9901(2)
C14 C 0.1739(2) 0.5364(2) 1.0285(2)
C15 C 0.1627(2) 0.5728(2) 1.0580(2)
C16 C 0.2306(2) 0.5540(2) 1.0676(2)
C17 C 0.13763(19) 0.6446(2) 1.0407(2)
H11 H 0.1218 0.6425 1.0655
H12 H 0.1196 0.6540 1.0195
C18 C 0.2064(2) 0.6098(2) 1.11069(19)
H13 H 0.2272 0.6000 1.1290
H14 H 0.1817 0.6132 1.1263
C19 C 0.1808(2) 0.7020(2) 1.0169(2)
C20 C 0.1909(2) 0.6815(2) 1.0851(2)
H15 H 0.1724 0.6878 1.1075
C21 C 0.21928(18) 0.7175(2) 1.07492(18)
H16 H 0.2141 0.7409 1.0925
C22 C 0.25795(19) 0.6611(2) 1.09626(17)
C23 C 0.2284(2) 0.75972(19) 1.0097(2)
H17 H 0.2091 0.7682 0.9891
H18 H 0.2326 0.7825 1.0278
C24 C 0.29679(19) 0.72417(19) 1.08014(18)
H19 H 0.2911 0.7516 1.0891
H20 H 0.3160 0.7124 1.0991
C25 C 0.2674(2) 0.73764(19) 0.9511(2)
C26 C 0.30644(19) 0.75571(18) 1.00856(19)
C27 C 0.3360(2) 0.74155(19) 0.97299(19)
C28 C 0.34243(17) 0.69672(19) 1.0282(2)
C29 C 0.3181(2) 0.7174(2) 0.90052(19)
H21 H 0.2975 0.7259 0.8813
H22 H 0.3436 0.7295 0.8921
C30 C 0.38656(19) 0.6816(2) 0.9704(2)
H23 H 0.4024 0.6995 0.9532
H24 H 0.4044 0.6711 0.9913
C31 C 0.2968(3) 0.4865(3) 0.8827(3)
H25 H 0.2759 0.4806 0.8633
H26 H 0.3046 0.4620 0.8963
H27 H 0.3199 0.4979 0.8691
C32 C 0.2307(3) 0.4599(2) 0.9375(3)
H28 H 0.2196 0.4564 0.9109
H29 H 0.2105 0.4535 0.9575
H30 H 0.2536 0.4421 0.9409
C33 C 0.1471(3) 0.4989(3) 1.0353(3)
H31 H 0.1522 0.4879 1.0618
H32 H 0.1533 0.4787 1.0151
H33 H 0.1191 0.5064 1.0331
C34 C 0.1287(3) 0.5658(3) 1.0882(3)
H34 H 0.1362 0.5442 1.1064
H35 H 0.1044 0.5585 1.0740
H36 H 0.1241 0.5902 1.1035
C35 C 0.3119(2) 0.7988(2) 1.0234(2)
H37 H 0.3383 0.8017 1.0353
H38 H 0.2915 0.8048 1.0434
H39 H 0.3092 0.8172 1.0010
C36 C 0.3671(2) 0.7721(2) 0.9600(2)
H40 H 0.3853 0.7774 0.9822
H41 H 0.3538 0.7969 0.9523
H42 H 0.3822 0.7617 0.9374
N1 N 0.32199(16) 0.67413(16) 0.89837(15)
N2 N 0.30742(16) 0.61113(17) 0.87870(16)
N3 N 0.37187(16) 0.64824(16) 0.94630(15)
N4 N 0.35357(16) 0.58557(16) 0.93003(16)
N5 N 0.26476(16) 0.55413(16) 0.89640(16)
N6 N 0.21297(16) 0.53274(17) 0.93413(16)
N7 N 0.31353(16) 0.52535(15) 0.94373(17)
N8 N 0.26200(16) 0.50800(16) 0.98368(16)
N9 N 0.16689(16) 0.55417(18) 0.98845(16)
N10 N 0.15221(16) 0.60455(17) 1.03000(16)
N11 N 0.21613(16) 0.52923(17) 1.03827(16)
N12 N 0.19939(16) 0.57974(19) 1.08009(16)
N13 N 0.16937(15) 0.6749(2) 1.04685(18)
N14 N 0.21086(17) 0.72667(18) 1.03261(17)
N15 N 0.21860(16) 0.64884(18) 1.09529(16)
N16 N 0.25927(15) 0.70073(16) 1.08170(15)
N17 N 0.26619(15) 0.74996(16) 0.99034(16)
N18 N 0.30754(16) 0.73326(15) 0.94014(15)
N19 N 0.31533(15) 0.72580(15) 1.04036(15)
N20 N 0.35412(15) 0.70500(14) 0.98958(15)
O23 O 0.25975(15) 0.66158(14) 0.86870(13)
O24 O 0.20405(14) 0.58855(14) 0.89304(12)
O25 O 0.14370(14) 0.61411(15) 0.96169(14)
O26 O 0.16518(14) 0.70451(15) 0.98310(14)
O27 O 0.23784(14) 0.73279(15) 0.92918(14)
O28 O 0.38064(13) 0.59681(13) 0.99356(14)
O29 O 0.32341(13) 0.52346(13) 1.01305(14)
O30 O 0.26509(14) 0.55291(14) 1.08207(13)
O31 O 0.28658(13) 0.64170(14) 1.10828(13)
O32 O 0.35429(12) 0.66821(12) 1.04905(12)
K1 K 0.18431(5) 0.66812(5) 0.91140(5)
K2 K 0.33830(5) 0.58673(5) 1.06746(4)
loop_
_geom_bond_atom_site_label_1
_geom_bond_atom_site_label_2
_geom_bond_site_symmetry_1
_geom_bond_site_symmetry_2
C1 N1 1_555 1_555
C2 H1 1_555 1_555
C3 C2 1_555 1_555
H2 C3 1_555 1_555
C4 N3 1_555 1_555
C5 H3 1_555 1_555
H4 C5 1_555 1_555
C6 H5 1_555 1_555
H6 C6 1_555 1_555
C7 N5 1_555 1_555
C8 C9 1_555 1_555
C9 C32 1_555 1_555
C10 N7 1_555 1_555
C11 H7 1_555 1_555
H8 C11 1_555 1_555
C12 H9 1_555 1_555
H10 C12 1_555 1_555
C13 N9 1_555 1_555
C14 C15 1_555 1_555
C15 C34 1_555 1_555
C16 N11 1_555 1_555
C17 H11 1_555 1_555
H12 C17 1_555 1_555
C18 H13 1_555 1_555
H14 C18 1_555 1_555
C19 N13 1_555 1_555
C20 H15 1_555 1_555
C21 C20 1_555 1_555
H16 C21 1_555 1_555
C22 N15 1_555 1_555
C23 H17 1_555 1_555
H18 C23 1_555 1_555
C24 H19 1_555 1_555
H20 C24 1_555 1_555
C25 N17 1_555 1_555
C26 C27 1_555 1_555
C27 C36 1_555 1_555
C28 N19 1_555 1_555
C29 H21 1_555 1_555
H22 C29 1_555 1_555
C30 H23 1_555 1_555
H24 C30 1_555 1_555
C31 C8 1_555 1_555
H25 C31 1_555 1_555
H26 C31 1_555 1_555
H27 C31 1_555 1_555
C32 H28 1_555 1_555
H29 C32 1_555 1_555
H30 C32 1_555 1_555
C33 C14 1_555 1_555
H31 C33 1_555 1_555
H32 C33 1_555 1_555
H33 C33 1_555 1_555
C34 H34 1_555 1_555
H35 C34 1_555 1_555
H36 C34 1_555 1_555
C35 C26 1_555 1_555
H37 C35 1_555 1_555
H38 C35 1_555 1_555
H39 C35 1_555 1_555
C36 H40 1_555 1_555
H41 C36 1_555 1_555
H42 C36 1_555 1_555
N1 C2 1_555 1_555
N2 C1 1_555 1_555
N3 C2 1_555 1_555
N4 C3 1_555 1_555
N5 C5 1_555 1_555
N6 C7 1_555 1_555
N7 C6 1_555 1_555
N8 C9 1_555 1_555
N9 C11 1_555 1_555
N10 C13 1_555 1_555
N11 C12 1_555 1_555
N12 C15 1_555 1_555
N13 C17 1_555 1_555
N14 C19 1_555 1_555
N15 C18 1_555 1_555
N16 C21 1_555 1_555
N17 C23 1_555 1_555
N18 C25 1_555 1_555
N19 C24 1_555 1_555
N20 C27 1_555 1_555
O23 C1 1_555 1_555
O24 C7 1_555 1_555
O25 C13 1_555 1_555
O26 C19 1_555 1_555
O27 C25 1_555 1_555
O28 C4 1_555 1_555
O29 C10 1_555 1_555
O30 C16 1_555 1_555
O31 C22 1_555 1_555
O32 C28 1_555 1_555
C3 N2 1_555 1_555
C4 N4 1_555 1_555
C5 N2 1_555 1_555
C6 N4 1_555 1_555
C8 N5 1_555 1_555
C8 N7 1_555 1_555
C9 N6 1_555 1_555
C10 N8 1_555 1_555
C11 N6 1_555 1_555
C12 N8 1_555 1_555
C14 N9 1_555 1_555
C14 N11 1_555 1_555
C15 N10 1_555 1_555
C16 N12 1_555 1_555
C17 N10 1_555 1_555
C18 N12 1_555 1_555
C20 N13 1_555 1_555
C20 N15 1_555 1_555
C21 N14 1_555 1_555
C22 N16 1_555 1_555
C23 N14 1_555 1_555
C24 N16 1_555 1_555
C26 N17 1_555 1_555
C26 N19 1_555 1_555
C27 N18 1_555 1_555
C28 N20 1_555 1_555
C29 N1 1_555 1_555
C29 N18 1_555 1_555
C30 N3 1_555 1_555
C30 N20 1_555 1_555

#END
