
#######################################################################
#
#                 Cambridge Crystallographic Data Centre
#                                CCDC 
#
#######################################################################
#
# If this CIF has been generated from an entry in the Cambridge 
# Structural Database, then it will include bibliographic, chemical, 
# crystal, experimental, refinement or atomic coordinate data resulting 
# from the CCDC's data processing and validation procedures.
#
#######################################################################

data_IYEMAC
_chemical_formula_moiety         'C84 H108 N12,0.5(C1 H2 Cl2),3.5(H2 O1)'
_chemical_name_systematic        
'8,9,23,24,38,39,53,54,65,66,77,78-dodecamethyl-5,12,20,27,35,42,50,57,62,69,74,81-dodecaazatridecacyclo[29.29.10.10^16,46^.1^3,59^.1^14,18^.1^29,33^.1^44,48^.0^6,11^.0^21,26^.0^36,41^.0^51,56^.0^63,68^.0^75,80^]tetraoctaconta-1,3(71),4,12,14(84),15,17,19,27,29(83),30,32,34,42,44(72),45,47,49,57,59,61,69,73,81-tetracosaene dichloromethane solvate hydrate'
_symmetry_cell_setting           cubic
_symmetry_space_group_name_H-M   'F 41 3 2'
_symmetry_Int_Tables_number      210
_space_group_name_Hall           'F 4d 2 3'
loop_
_symmetry_equiv_pos_site_id
_symmetry_equiv_pos_as_xyz
1 x,y,z
2 -x,-y,z
3 x,-y,-z
4 -x,y,-z
5 z,x,y
6 y,z,x
7 -z,-x,y
8 -y,z,-x
9 z,-x,-y
10 -y,-z,x
11 -z,x,-y
12 y,-z,-x
13 1/4-y,1/4-x,1/4-z
14 1/4+y,1/4+x,1/4-z
15 1/4+y,1/4-x,1/4+z
16 1/4-y,1/4+x,1/4+z
17 1/4-x,1/4-z,1/4-y
18 1/4-z,1/4-y,1/4-x
19 1/4+x,1/4+z,1/4-y
20 1/4-z,1/4+y,1/4+x
21 1/4+x,1/4-z,1/4+y
22 1/4+z,1/4+y,1/4-x
23 1/4-x,1/4+z,1/4+y
24 1/4+z,1/4-y,1/4+x
25 x,1/2+y,1/2+z
26 -x,1/2-y,1/2+z
27 x,1/2-y,1/2-z
28 -x,1/2+y,1/2-z
29 z,1/2+x,1/2+y
30 y,1/2+z,1/2+x
31 -z,1/2-x,1/2+y
32 -y,1/2+z,1/2-x
33 z,1/2-x,1/2-y
34 -y,1/2-z,1/2+x
35 -z,1/2+x,1/2-y
36 y,1/2-z,1/2-x
37 1/4-y,3/4-x,3/4-z
38 1/4+y,3/4+x,3/4-z
39 1/4+y,3/4-x,3/4+z
40 1/4-y,3/4+x,3/4+z
41 1/4-x,3/4-z,3/4-y
42 1/4-z,3/4-y,3/4-x
43 1/4+x,3/4+z,3/4-y
44 1/4-z,3/4+y,3/4+x
45 1/4+x,3/4-z,3/4+y
46 1/4+z,3/4+y,3/4-x
47 1/4-x,3/4+z,3/4+y
48 1/4+z,3/4-y,3/4+x
49 1/2+x,y,1/2+z
50 1/2-x,-y,1/2+z
51 1/2+x,-y,1/2-z
52 1/2-x,y,1/2-z
53 1/2+z,x,1/2+y
54 1/2+y,z,1/2+x
55 1/2-z,-x,1/2+y
56 1/2-y,z,1/2-x
57 1/2+z,-x,1/2-y
58 1/2-y,-z,1/2+x
59 1/2-z,x,1/2-y
60 1/2+y,-z,1/2-x
61 3/4-y,1/4-x,3/4-z
62 3/4+y,1/4+x,3/4-z
63 3/4+y,1/4-x,3/4+z
64 3/4-y,1/4+x,3/4+z
65 3/4-x,1/4-z,3/4-y
66 3/4-z,1/4-y,3/4-x
67 3/4+x,1/4+z,3/4-y
68 3/4-z,1/4+y,3/4+x
69 3/4+x,1/4-z,3/4+y
70 3/4+z,1/4+y,3/4-x
71 3/4-x,1/4+z,3/4+y
72 3/4+z,1/4-y,3/4+x
73 1/2+x,1/2+y,z
74 1/2-x,1/2-y,z
75 1/2+x,1/2-y,-z
76 1/2-x,1/2+y,-z
77 1/2+z,1/2+x,y
78 1/2+y,1/2+z,x
79 1/2-z,1/2-x,y
80 1/2-y,1/2+z,-x
81 1/2+z,1/2-x,-y
82 1/2-y,1/2-z,x
83 1/2-z,1/2+x,-y
84 1/2+y,1/2-z,-x
85 3/4-y,3/4-x,1/4-z
86 3/4+y,3/4+x,1/4-z
87 3/4+y,3/4-x,1/4+z
88 3/4-y,3/4+x,1/4+z
89 3/4-x,3/4-z,1/4-y
90 3/4-z,3/4-y,1/4-x
91 3/4+x,3/4+z,1/4-y
92 3/4-z,3/4+y,1/4+x
93 3/4+x,3/4-z,1/4+y
94 3/4+z,3/4+y,1/4-x
95 3/4-x,3/4+z,1/4+y
96 3/4+z,3/4-y,1/4+x
_cell_length_a                   26.295(7)
_cell_length_b                   26.295(7)
_cell_length_c                   26.295(7)
_cell_angle_alpha                90
_cell_angle_beta                 90
_cell_angle_gamma                90
_cell_volume                     18181.1
_exptl_crystal_colour            colorless
_exptl_crystal_description       prism
_cell_formula_units_Z            8
_exptl_crystal_recrystallization_method 'dichloromethane/ethyl acetate'
loop_
_atom_site_label
_atom_site_type_symbol
_atom_site_fract_x
_atom_site_fract_y
_atom_site_fract_z
O1 O 0.4286(3) 0.4286(3) 0.5714(3)
O2 O 0.5000 0.5000 0.5300(11)
O3 O 0.4600(4) 0.3750 0.7100(4)
C1 C 0.5492(3) 0.3962(3) 0.6205(3)
H1 H 0.5202 0.3877 0.6404
C2 C 0.5788(3) 0.4379(3) 0.6331(3)
C3 C 0.5675(3) 0.4681(3) 0.6784(3)
H2 H 0.5865 0.4984 0.6837
C4 C 0.5266(3) 0.4885(4) 0.7550(3)
H3 H 0.5521 0.5167 0.7536
C5 C 0.5358(5) 0.4573(4) 0.8037(3)
H4 H 0.5118 0.4283 0.8048
H5 H 0.5708 0.4436 0.8036
C6 C 0.5683(6) 0.5286(7) 0.8585(5)
H6 H 0.5594 0.5504 0.8875
H7 H 0.5720 0.5496 0.8279
H8 H 0.6003 0.5111 0.8655
N1 N 0.5337(3) 0.4563(2) 0.7115(2)
C7 C 0.5279(4) 0.4912(5) 0.8505(4)
H9 H 0.5306 0.4675 0.8802
C1A C 0.4508(3) 0.6038(3) 0.6205(3)
H1A H 0.4798 0.6123 0.6404
C2A C 0.4212(3) 0.5621(3) 0.6331(3)
C3A C 0.4325(3) 0.5319(3) 0.6784(3)
H2A H 0.4135 0.5016 0.6837
C4A C 0.4734(3) 0.5115(4) 0.7550(3)
H3A H 0.4479 0.4833 0.7536
C5A C 0.4642(5) 0.5427(4) 0.8037(3)
H4A H 0.4882 0.5717 0.8048
H5A H 0.4292 0.5564 0.8036
C6A C 0.4317(6) 0.4714(7) 0.8585(5)
H6A H 0.4406 0.4496 0.8875
H7A H 0.4280 0.4504 0.8279
H8A H 0.3997 0.4889 0.8655
N1A N 0.4663(3) 0.5437(2) 0.7115(2)
C7A C 0.4721(4) 0.5088(5) 0.8505(4)
H9A H 0.4694 0.5325 0.8802
C1H C 0.6205(3) 0.4508(3) 0.6038(3)
H1H H 0.6404 0.4798 0.6123
C2H C 0.6331(3) 0.4212(3) 0.5621(3)
C3H C 0.6784(3) 0.4325(3) 0.5319(3)
H2H H 0.6837 0.4135 0.5016
C4H C 0.7550(3) 0.4734(3) 0.5115(4)
H3H H 0.7536 0.4479 0.4833
C5H C 0.8037(3) 0.4642(5) 0.5427(4)
H4H H 0.8048 0.4882 0.5717
H5H H 0.8036 0.4292 0.5564
C6H C 0.8585(5) 0.4317(6) 0.4714(7)
H6H H 0.8875 0.4406 0.4496
H7H H 0.8279 0.4280 0.4504
H8H H 0.8655 0.3997 0.4889
N1H N 0.7115(2) 0.4663(3) 0.5437(2)
C7H C 0.8505(4) 0.4721(4) 0.5088(5)
H9H H 0.8802 0.4694 0.5325
C1I C 0.6038(3) 0.3795(3) 0.5492(3)
H1I H 0.6123 0.3596 0.5202
C2I C 0.5621(3) 0.3669(3) 0.5788(3)
C3I C 0.5319(3) 0.3216(3) 0.5675(3)
H2I H 0.5016 0.3163 0.5865
C4I C 0.5115(4) 0.2450(3) 0.5266(3)
H3I H 0.4833 0.2464 0.5521
C5I C 0.5427(4) 0.1963(3) 0.5358(5)
H4I H 0.5717 0.1952 0.5118
H5I H 0.5564 0.1964 0.5708
C6I C 0.4714(7) 0.1415(5) 0.5683(6)
H6I H 0.4496 0.1125 0.5594
H7I H 0.4504 0.1721 0.5720
H8I H 0.4889 0.1345 0.6003
N1I N 0.5437(2) 0.2885(2) 0.5337(3)
C7I C 0.5088(5) 0.1495(4) 0.5279(4)
H9I H 0.5325 0.1198 0.5306
C1D C 0.6205(3) 0.5492(3) 0.3962(3)
H1D H 0.6404 0.5202 0.3877
C2D C 0.6331(3) 0.5788(3) 0.4379(3)
C3D C 0.6784(3) 0.5675(3) 0.4681(3)
H2D H 0.6837 0.5865 0.4984
C4D C 0.7550(3) 0.5266(3) 0.4885(4)
H3D H 0.7536 0.5521 0.5167
C5D C 0.8037(3) 0.5358(5) 0.4573(4)
H4D H 0.8048 0.5118 0.4283
H5D H 0.8036 0.5708 0.4436
C6D C 0.8585(5) 0.5683(6) 0.5286(7)
H6D H 0.8875 0.5594 0.5504
H7D H 0.8279 0.5720 0.5496
H8D H 0.8655 0.6003 0.5111
N1D N 0.7115(2) 0.5337(3) 0.4563(2)
C7D C 0.8505(4) 0.5279(4) 0.4912(5)
H9D H 0.8802 0.5306 0.4675
C1E C 0.3962(3) 0.6205(3) 0.5492(3)
H1E H 0.3877 0.6404 0.5202
C2E C 0.4379(3) 0.6331(3) 0.5788(3)
C3E C 0.4681(3) 0.6784(3) 0.5675(3)
H2E H 0.4984 0.6837 0.5865
C4E C 0.4885(4) 0.7550(3) 0.5266(3)
H3E H 0.5167 0.7536 0.5521
C5E C 0.4573(4) 0.8037(3) 0.5358(5)
H4E H 0.4283 0.8048 0.5118
H5E H 0.4436 0.8036 0.5708
C6E C 0.5286(7) 0.8585(5) 0.5683(6)
H6E H 0.5504 0.8875 0.5594
H7E H 0.5496 0.8279 0.5720
H8E H 0.5111 0.8655 0.6003
N1E N 0.4563(2) 0.7115(2) 0.5337(3)
C7E C 0.4912(5) 0.8505(4) 0.5279(4)
H9E H 0.4675 0.8802 0.5306
C1G C 0.6038(3) 0.6205(3) 0.4508(3)
H1G H 0.6123 0.6404 0.4798
C2G C 0.5621(3) 0.6331(3) 0.4212(3)
C3G C 0.5319(3) 0.6784(3) 0.4325(3)
H2G H 0.5016 0.6837 0.4135
C4G C 0.5115(4) 0.7550(3) 0.4734(3)
H3G H 0.4833 0.7536 0.4479
C5G C 0.5427(4) 0.8037(3) 0.4642(5)
H4G H 0.5717 0.8048 0.4882
H5G H 0.5564 0.8036 0.4292
C6G C 0.4714(7) 0.8585(5) 0.4317(6)
H6G H 0.4496 0.8875 0.4406
H7G H 0.4504 0.8279 0.4280
H8G H 0.4889 0.8655 0.3997
N1G N 0.5437(2) 0.7115(2) 0.4663(3)
C7G C 0.5088(5) 0.8505(4) 0.4721(4)
H9G H 0.5325 0.8802 0.4694
C1J C 0.3795(3) 0.5492(3) 0.6038(3)
H1J H 0.3596 0.5202 0.6123
C2J C 0.3669(3) 0.5788(3) 0.5621(3)
C3J C 0.3216(3) 0.5675(3) 0.5319(3)
H2J H 0.3163 0.5865 0.5016
C4J C 0.2450(3) 0.5266(3) 0.5115(4)
H3J H 0.2464 0.5521 0.4833
C5J C 0.1963(3) 0.5358(5) 0.5427(4)
H4J H 0.1952 0.5118 0.5717
H5J H 0.1964 0.5708 0.5564
C6J C 0.1415(5) 0.5683(6) 0.4714(7)
H6J H 0.1125 0.5594 0.4496
H7J H 0.1721 0.5720 0.4504
H8J H 0.1345 0.6003 0.4889
N1J N 0.2885(2) 0.5337(3) 0.5437(2)
C7J C 0.1495(4) 0.5279(4) 0.5088(5)
H9J H 0.1198 0.5306 0.5325
C1K C 0.3962(3) 0.3795(3) 0.4508(3)
H1K H 0.3877 0.3596 0.4798
C2K C 0.4379(3) 0.3669(3) 0.4212(3)
C3K C 0.4681(3) 0.3216(3) 0.4325(3)
H2K H 0.4984 0.3163 0.4135
C4K C 0.4885(4) 0.2450(3) 0.4734(3)
H3K H 0.5167 0.2464 0.4479
C5K C 0.4573(4) 0.1963(3) 0.4642(5)
H4K H 0.4283 0.1952 0.4882
H5K H 0.4436 0.1964 0.4292
C6K C 0.5286(7) 0.1415(5) 0.4317(6)
H6K H 0.5504 0.1125 0.4406
H7K H 0.5496 0.1721 0.4280
H8K H 0.5111 0.1345 0.3997
N1K N 0.4563(2) 0.2885(2) 0.4663(3)
C7K C 0.4912(5) 0.1495(4) 0.4721(4)
H9K H 0.4675 0.1198 0.4694
C1B C 0.5492(3) 0.6038(3) 0.3795(3)
H1B H 0.5202 0.6123 0.3596
C2B C 0.5788(3) 0.5621(3) 0.3669(3)
C3B C 0.5675(3) 0.5319(3) 0.3216(3)
H2B H 0.5865 0.5016 0.3163
C4B C 0.5266(3) 0.5115(4) 0.2450(3)
H3B H 0.5521 0.4833 0.2464
C5B C 0.5358(5) 0.5427(4) 0.1963(3)
H4B H 0.5118 0.5717 0.1952
H5B H 0.5708 0.5564 0.1964
C6B C 0.5683(6) 0.4714(7) 0.1415(5)
H6B H 0.5594 0.4496 0.1125
H7B H 0.5720 0.4504 0.1721
H8B H 0.6003 0.4889 0.1345
N1B N 0.5337(3) 0.5437(2) 0.2885(2)
C7B C 0.5279(4) 0.5088(5) 0.1495(4)
H9B H 0.5306 0.5325 0.1198
C1C C 0.4508(3) 0.3962(3) 0.3795(3)
H1C H 0.4798 0.3877 0.3596
C2C C 0.4212(3) 0.4379(3) 0.3669(3)
C3C C 0.4325(3) 0.4681(3) 0.3216(3)
H2C H 0.4135 0.4984 0.3163
C4C C 0.4734(3) 0.4885(4) 0.2450(3)
H3C H 0.4479 0.5167 0.2464
C5C C 0.4642(5) 0.4573(4) 0.1963(3)
H4C H 0.4882 0.4283 0.1952
H5C H 0.4292 0.4436 0.1964
C6C C 0.4317(6) 0.5286(7) 0.1415(5)
H6C H 0.4406 0.5504 0.1125
H7C H 0.4280 0.5496 0.1721
H8C H 0.3997 0.5111 0.1345
N1C N 0.4663(3) 0.4563(2) 0.2885(2)
C7C C 0.4721(4) 0.4912(5) 0.1495(4)
H9C H 0.4694 0.4675 0.1198
C1F C 0.3795(3) 0.4508(3) 0.3962(3)
H1F H 0.3596 0.4798 0.3877
C2F C 0.3669(3) 0.4212(3) 0.4379(3)
C3F C 0.3216(3) 0.4325(3) 0.4681(3)
H2F H 0.3163 0.4135 0.4984
C4F C 0.2450(3) 0.4734(3) 0.4885(4)
H3F H 0.2464 0.4479 0.5167
C5F C 0.1963(3) 0.4642(5) 0.4573(4)
H4F H 0.1952 0.4882 0.4283
H5F H 0.1964 0.4292 0.4436
C6F C 0.1415(5) 0.4317(6) 0.5286(7)
H6F H 0.1125 0.4406 0.5504
H7F H 0.1721 0.4280 0.5496
H8F H 0.1345 0.3997 0.5111
N1F N 0.2885(2) 0.4663(3) 0.4563(2)
C7F C 0.1495(4) 0.4721(4) 0.4912(5)
H9F H 0.1198 0.4694 0.4675
C8? C 0.5413(10) 0.4353(10) 0.8566(11)
H10? H 0.5386 0.4135 0.8868
H11? H 0.5724 0.4557 0.8588
H12? H 0.5425 0.4140 0.8260
C9? C 0.4900(11) 0.4723(7) 0.7569(7)
H13? H 0.5199 0.4487 0.7554
C10? C 0.5405(10) 0.5383(11) 0.8083(7)
H14? H 0.5704 0.5155 0.8103
H15? H 0.5528 0.5739 0.8088
C11? C 0.43121(19) 0.41275(19) 0.64038(19)
N2? N 0.4564(3) 0.4610(3) 0.7138(3)
C12? C 0.4651(3) 0.4233(3) 0.6849(3)
H16? H 0.4934 0.4018 0.6915
C13? C 0.4431(3) 0.3710(3) 0.6105(3)
H17? H 0.4717 0.3503 0.6184
C14? C 0.5055(11) 0.5289(3) 0.8540(9)
H18? H 0.5263 0.5359 0.8851
Cl1? Cl 0.4205(7) 0.3750 0.6705(7)
C15? C 0.3750 0.3750 0.6250
loop_
_geom_bond_atom_site_label_1
_geom_bond_atom_site_label_2
_geom_bond_site_symmetry_1
_geom_bond_site_symmetry_2
C1 H1 1_555 1_555
C2 C1 1_555 1_555
C3 C2 1_555 1_555
H2 C3 1_555 1_555
C4 H3 1_555 1_555
C5 C4 1_555 1_555
H4 C5 1_555 1_555
H5 C5 1_555 1_555
C6 H6 1_555 1_555
H7 C6 1_555 1_555
H8 C6 1_555 1_555
N1 C3 1_555 1_555
C7 C5 1_555 1_555
H9 C7 1_555 1_555
C1A H1A 1_555 1_555
C2A C1A 1_555 1_555
C3A C2A 1_555 1_555
H2A C3A 1_555 1_555
C4A C4 1_555 1_555
H3A C4A 1_555 1_555
C5A C4A 1_555 1_555
H4A C5A 1_555 1_555
H5A C5A 1_555 1_555
C6A H6A 1_555 1_555
H7A C6A 1_555 1_555
H8A C6A 1_555 1_555
N1A C3A 1_555 1_555
C7A C7 1_555 1_555
H9A C7A 1_555 1_555
C1H C2 1_555 1_555
H1H C1H 1_555 1_555
C2H C1H 1_555 1_555
C3H C2H 1_555 1_555
H2H C3H 1_555 1_555
C4H H3H 1_555 1_555
C5H C4H 1_555 1_555
H4H C5H 1_555 1_555
H5H C5H 1_555 1_555
C6H H6H 1_555 1_555
H7H C6H 1_555 1_555
H8H C6H 1_555 1_555
N1H C3H 1_555 1_555
C7H C5H 1_555 1_555
H9H C7H 1_555 1_555
C1I C2H 1_555 1_555
H1I C1I 1_555 1_555
C2I C1 1_555 1_555
C3I C2I 1_555 1_555
H2I C3I 1_555 1_555
C4I H3I 1_555 1_555
C5I C4I 1_555 1_555
H4I C5I 1_555 1_555
H5I C5I 1_555 1_555
C6I H6I 1_555 1_555
H7I C6I 1_555 1_555
H8I C6I 1_555 1_555
N1I C3I 1_555 1_555
C7I C5I 1_555 1_555
H9I C7I 1_555 1_555
C1D H1D 1_555 1_555
C2D C1D 1_555 1_555
C3D C2D 1_555 1_555
H2D C3D 1_555 1_555
C4D C4H 1_555 1_555
H3D C4D 1_555 1_555
C5D C4D 1_555 1_555
H4D C5D 1_555 1_555
H5D C5D 1_555 1_555
C6D H6D 1_555 1_555
H7D C6D 1_555 1_555
H8D C6D 1_555 1_555
N1D C3D 1_555 1_555
C7D C7H 1_555 1_555
H9D C7D 1_555 1_555
C1E H1E 1_555 1_555
C2E C1A 1_555 1_555
C3E C2E 1_555 1_555
H2E C3E 1_555 1_555
C4E H3E 1_555 1_555
C5E C4E 1_555 1_555
H4E C5E 1_555 1_555
H5E C5E 1_555 1_555
C6E H6E 1_555 1_555
H7E C6E 1_555 1_555
H8E C6E 1_555 1_555
N1E C3E 1_555 1_555
C7E C5E 1_555 1_555
H9E C7E 1_555 1_555
C1G C2D 1_555 1_555
H1G C1G 1_555 1_555
C2G C1G 1_555 1_555
C3G C2G 1_555 1_555
H2G C3G 1_555 1_555
C4G C4E 1_555 1_555
H3G C4G 1_555 1_555
C5G C4G 1_555 1_555
H4G C5G 1_555 1_555
H5G C5G 1_555 1_555
C6G H6G 1_555 1_555
H7G C6G 1_555 1_555
H8G C6G 1_555 1_555
N1G C3G 1_555 1_555
C7G C7E 1_555 1_555
H9G C7G 1_555 1_555
C1J C2A 1_555 1_555
H1J C1J 1_555 1_555
C2J C1E 1_555 1_555
C3J C2J 1_555 1_555
H2J C3J 1_555 1_555
C4J H3J 1_555 1_555
C5J C4J 1_555 1_555
H4J C5J 1_555 1_555
H5J C5J 1_555 1_555
C6J H6J 1_555 1_555
H7J C6J 1_555 1_555
H8J C6J 1_555 1_555
N1J C3J 1_555 1_555
C7J C5J 1_555 1_555
H9J C7J 1_555 1_555
C1K H1K 1_555 1_555
C2K C1K 1_555 1_555
C3K C2K 1_555 1_555
H2K C3K 1_555 1_555
C4K C4I 1_555 1_555
H3K C4K 1_555 1_555
C5K C4K 1_555 1_555
H4K C5K 1_555 1_555
H5K C5K 1_555 1_555
C6K H6K 1_555 1_555
H7K C6K 1_555 1_555
H8K C6K 1_555 1_555
N1K C3K 1_555 1_555
C7K C7I 1_555 1_555
H9K C7K 1_555 1_555
C1B C2G 1_555 1_555
H1B C1B 1_555 1_555
C2B C1D 1_555 1_555
C3B C2B 1_555 1_555
H2B C3B 1_555 1_555
C4B H3B 1_555 1_555
C5B C4B 1_555 1_555
H4B C5B 1_555 1_555
H5B C5B 1_555 1_555
C6B H6B 1_555 1_555
H7B C6B 1_555 1_555
H8B C6B 1_555 1_555
N1B C3B 1_555 1_555
C7B C5B 1_555 1_555
H9B C7B 1_555 1_555
C1C C2K 1_555 1_555
H1C C1C 1_555 1_555
C2C C1C 1_555 1_555
C3C C2C 1_555 1_555
H2C C3C 1_555 1_555
C4C C4B 1_555 1_555
H3C C4C 1_555 1_555
C5C C4C 1_555 1_555
H4C C5C 1_555 1_555
H5C C5C 1_555 1_555
C6C H6C 1_555 1_555
H7C C6C 1_555 1_555
H8C C6C 1_555 1_555
N1C C3C 1_555 1_555
C7C C7B 1_555 1_555
H9C C7C 1_555 1_555
C1F C2C 1_555 1_555
H1F C1F 1_555 1_555
C2F C1K 1_555 1_555
C3F C2F 1_555 1_555
H2F C3F 1_555 1_555
C4F C4J 1_555 1_555
H3F C4F 1_555 1_555
C5F C4F 1_555 1_555
H4F C5F 1_555 1_555
H5F C5F 1_555 1_555
C6F H6F 1_555 1_555
H7F C6F 1_555 1_555
H8F C6F 1_555 1_555
N1F C3F 1_555 1_555
C7F C7J 1_555 1_555
H9F C7F 1_555 1_555
C4 N1 1_555 1_555
C6 C7 1_555 1_555
C4A N1A 1_555 1_555
C5A C7A 1_555 1_555
C6A C7A 1_555 1_555
C4H N1H 1_555 1_555
C6H C7H 1_555 1_555
C1I C2I 1_555 1_555
C4I N1I 1_555 1_555
C6I C7I 1_555 1_555
C4D N1D 1_555 1_555
C5D C7D 1_555 1_555
C6D C7D 1_555 1_555
C1E C2E 1_555 1_555
C4E N1E 1_555 1_555
C6E C7E 1_555 1_555
C4G N1G 1_555 1_555
C5G C7G 1_555 1_555
C6G C7G 1_555 1_555
C1J C2J 1_555 1_555
C4J N1J 1_555 1_555
C6J C7J 1_555 1_555
C4K N1K 1_555 1_555
C5K C7K 1_555 1_555
C6K C7K 1_555 1_555
C1B C2B 1_555 1_555
C4B N1B 1_555 1_555
C6B C7B 1_555 1_555
C4C N1C 1_555 1_555
C5C C7C 1_555 1_555
C6C C7C 1_555 1_555
C1F C2F 1_555 1_555
C4F N1F 1_555 1_555
C5F C7F 1_555 1_555
C6F C7F 1_555 1_555

#END
