
#######################################################################
#
#                 Cambridge Crystallographic Data Centre
#                                CCDC 
#
#######################################################################
#
# If this CIF has been generated from an entry in the Cambridge 
# Structural Database, then it will include bibliographic, chemical, 
# crystal, experimental, refinement or atomic coordinate data resulting 
# from the CCDC's data processing and validation procedures.
#
#######################################################################

data_QEFMUM
_chemical_name_common            Li/K-CD-MOF
_chemical_formula_moiety         
'C48 H80 O40,1.23(K1 1+),0.77(Li1 1+),2(H1 O1 1-)'
_chemical_name_systematic        
'potassium lithium \g-cyclodextrin unknown solvate'
_symmetry_cell_setting           rhombohedral
_symmetry_space_group_name_H-M   'R 3 2'
_symmetry_Int_Tables_number      155
_space_group_name_Hall           'R 3 2"'
loop_
_symmetry_equiv_pos_site_id
_symmetry_equiv_pos_as_xyz
1 x,y,z
2 -y,x-y,z
3 -x+y,-x,z
4 y,x,-z
5 x-y,-y,-z
6 -x,-x+y,-z
7 2/3+x,1/3+y,1/3+z
8 2/3-y,1/3+x-y,1/3+z
9 2/3-x+y,1/3-x,1/3+z
10 2/3+y,1/3+x,1/3-z
11 2/3+x-y,1/3-y,1/3-z
12 2/3-x,1/3-x+y,1/3-z
13 1/3+x,2/3+y,2/3+z
14 1/3-y,2/3+x-y,2/3+z
15 1/3-x+y,2/3-x,2/3+z
16 1/3+y,2/3+x,2/3-z
17 1/3+x-y,2/3-y,2/3-z
18 1/3-x,2/3-x+y,2/3-z
_cell_length_a                   43.069(3)
_cell_length_b                   43.069(3)
_cell_length_c                   27.998(3)
_cell_angle_alpha                90
_cell_angle_beta                 90
_cell_angle_gamma                120
_cell_volume                     44976.7
_exptl_crystal_colour            colorless
_exptl_crystal_description       irregular
_cell_formula_units_Z            9
loop_
_atom_site_label
_atom_site_type_symbol
_atom_site_fract_x
_atom_site_fract_y
_atom_site_fract_z
K1 K 0.43860(3) 0.56404(4) 0.24825(5)
Li1 Li 0.3821(11) 0.6667 0.1667
Li2 Li 0.6667 0.63797(8) 0.3333
O1 O 0.54912(9) 0.69688(11) 0.2200(2)
H1 H 0.5421 0.6808 0.1991
O2 O 0.56960(14) 0.65661(14) 0.2802(3)
H2 H 0.5766 0.6659 0.3073
O3 O 0.47777(10) 0.62068(10) 0.30784(13)
O4 O 0.41787(12) 0.61471(12) 0.26780(15)
H3 H 0.4316(3) 0.6051(3) 0.2771(8)
O5 O 0.53088(11) 0.64836(9) 0.35409(15)
O6 O 0.58974(14) 0.63072(14) 0.3516(2)
H4 H 0.5704(3) 0.6156(8) 0.3357(7)
O7 O 0.62456(18) 0.63755(18) 0.4333(3)
H5 H 0.6359(5) 0.6574(4) 0.4524(6)
O8 O 0.53335(16) 0.61946(14) 0.4769(2)
O9 O 0.4657(2) 0.58804(14) 0.4375(2)
H6 H 0.4447 0.5826 0.4302
O10 O 0.59124(11) 0.66887(10) 0.48928(18)
O11 O 0.66681(12) 0.70187(11) 0.47739(17)
H7 H 0.6891 0.7158 0.4763
O12 O 0.70663(13) 0.75983(11) 0.5475(2)
H8 H 0.7238 0.7591 0.5606
O13 O 0.62112(11) 0.70630(9) 0.60672(15)
O14 O 0.5718(2) 0.6317(2) 0.6092(3)
H9 H 0.5536(6) 0.6154(4) 0.6219(10)
O15 O 0.65028(8) 0.76601(7) 0.57772(12)
O16 O 0.72136(8) 0.82567(8) 0.57652(12)
H10 H 0.7289(5) 0.8139(4) 0.5922(10)
O17 O 0.72761(12) 0.89326(10) 0.58817(18)
H11 H 0.7177(3) 0.9065(3) 0.5816(9)
O18 O 0.64416(10) 0.83353(9) 0.64903(15)
O19 O 0.61587(17) 0.76475(17) 0.69210(18)
H12 H 0.6374 0.7810 0.6951
O20 O 0.65290(9) 0.86951(8) 0.58546(13)
O21 O 0.70597(17) 0.93535(17) 0.5389(3)
H13 H 0.7105 0.9329 0.5104
O22 O 0.6690(2) 0.9662(2) 0.4950(3)
H14 H 0.6875 0.9655 0.4875
O23 O 0.60706(13) 0.92089(12) 0.5880(2)
O24 O 0.6039(3) 0.89169(19) 0.6766(2)
H15 H 0.5926 0.8804 0.7011
O25 O 0.59534(12) 0.91554(11) 0.50334(18)
O26 O 0.61637(17) 0.98035(16) 0.4522(2)
H16 H 0.6157 0.9924 0.4291
O27 O 0.5806(2) 0.9634(2) 0.3768(3)
H17 H 0.5880 0.9500 0.3664
O28 O 0.50575(19) 0.8941(2) 0.4555(3)
O29 O 0.49190(14) 0.88245(17) 0.5457(3)
H18 H 0.4792 0.8826 0.5231
O30 O 0.5342(2) 0.8964(2) 0.3716(3)
O31 O 0.57922(10) 0.92155(11) 0.25522(17)
H19 H 0.5721 0.9352 0.2447
O32 O 0.5454(2) 0.8656(2) 0.1976(3)
H20 H 0.5675(4) 0.8760(4) 0.1993(6)
O33 O 0.47192(7) 0.84124(9) 0.28338(14)
O34 O 0.45547(11) 0.87889(9) 0.34468(16)
H21 H 0.4553(3) 0.8892(3) 0.3726(4)
O35 O 0.50308(8) 0.81010(9) 0.25661(15)
O36 O 0.52898(9) 0.79642(8) 0.17277(15)
H22 H 0.5504(4) 0.8142(4) 0.1885(7)
O37 O 0.51391(8) 0.72433(8) 0.16239(11)
H23 H 0.5327(4) 0.7343(9) 0.1859(6)
O38 O 0.44497(8) 0.71384(9) 0.24698(13)
O39 O 0.40936(14) 0.75198(14) 0.2649(2)
H24 H 0.3941 0.7544 0.2806
O40 O 0.49159(7) 0.70291(7) 0.25652(11)
C1 C 0.49229(10) 0.67058(10) 0.26225(16)
H25 H 0.4799 0.6538 0.2351
C2 C 0.53179(13) 0.68171(12) 0.2637(2)
H26 H 0.5439 0.6993 0.2902
C3 C 0.53347(17) 0.64811(16) 0.2733(3)
H27 H 0.5246 0.6329 0.2439
C4 C 0.51201(15) 0.62544(15) 0.3140(2)
H28 H 0.5136(4) 0.6048(2) 0.3140(7)
C5 C 0.47557(14) 0.65336(14) 0.30921(19)
H29 H 0.4876 0.6689 0.3376
C6 C 0.43590(16) 0.63996(16) 0.30669(19)
H30 H 0.4247 0.6282 0.3373
H31 H 0.4322 0.6607 0.3027
C7 C 0.54111(15) 0.63347(15) 0.3938(2)
H32 H 0.5258 0.6071 0.3884
C8 C 0.57772(17) 0.63819(17) 0.3963(2)
H33 H 0.5939 0.6645 0.4015
C9 C 0.5853(2) 0.6206(2) 0.4375(3)
H34 H 0.5732 0.5940 0.4336
C10 C 0.5694(2) 0.6310(2) 0.4778(3)
H35 H 0.5723 0.6186 0.5062
C11 C 0.52684(17) 0.63875(19) 0.4412(2)
H36 H 0.5402 0.6648 0.4496
C12 C 0.48767(19) 0.62631(14) 0.4401(3)
H37 H 0.4812 0.6349 0.4692
H38 H 0.4825 0.6371 0.4121
C13 C 0.61542(14) 0.68200(14) 0.5294(2)
H39 H 0.6198 0.6626 0.5413
C14 C 0.65147(11) 0.71445(10) 0.51214(17)
H40 H 0.6476 0.7338 0.4986
C15 C 0.6742(2) 0.7271(2) 0.5566(3)
H41 H 0.6791 0.7083 0.5693
C16 C 0.5965(2) 0.6915(2) 0.5682(3)
H42 H 0.5891 0.7086 0.5561
C17 C 0.5665(3) 0.6604(2) 0.5943(4)
H43 H 0.5608 0.6700 0.6231
H44 H 0.5450 0.6502 0.5735
C18 C 0.66223(14) 0.79590(13) 0.60971(19)
H45 H 0.6728 0.7919 0.6393
C19 C 0.69029(11) 0.82885(10) 0.58270(17)
H46 H 0.6808 0.8316 0.5514
C20 C 0.66970(14) 0.86491(14) 0.6269(2)
H47 H 0.6771 0.8857 0.6490
C21 C 0.63118(13) 0.80205(12) 0.6221(2)
H48 H 0.6211 0.8054 0.5916
C22 C 0.60142(14) 0.77025(14) 0.64831(18)
H49 H 0.5816 0.7749 0.6557
H50 H 0.5918 0.7485 0.6281
C23 C 0.64748(13) 0.89943(13) 0.5886(2)
H51 H 0.6603 0.9135 0.6176
C24 C 0.6686(2) 0.9212(2) 0.5442(3)
H52 H 0.6574 0.9047 0.5164
C25 C 0.65616(17) 0.94941(16) 0.5405(3)
H53 H 0.6684 0.9678 0.5660
C26 C 0.61622(19) 0.93623(19) 0.5425(3)
H54 H 0.6138 0.9581 0.5435
C27 C 0.60838(18) 0.88877(17) 0.5933(3)
H55 H 0.5958 0.8735 0.5650
C28 C 0.5873(3) 0.8699(2) 0.6348(2)
H56 H 0.5625 0.8653 0.6312
H57 H 0.5864 0.8465 0.6380
C29 C 0.5671(3) 0.9228(3) 0.4916(4)
H58 H 0.5647 0.9381 0.5164
C30 C 0.58751(16) 0.94447(17) 0.4485(2)
H59 H 0.5958 0.9303 0.4296
C31 C 0.55948(15) 0.94784(16) 0.41958(19)
H60 H 0.5528 0.9646 0.4351
C32 C 0.52793(15) 0.91156(16) 0.41356(18)
H61 H 0.5118 0.9192 0.3985
C33 C 0.53299(18) 0.89092(19) 0.4817(3)
H62 H 0.5381 0.8739 0.4637
C34 C 0.51856(13) 0.87494(16) 0.5275(2)
H63 H 0.5079 0.8486 0.5248
H64 H 0.5385 0.8836 0.5508
C35 C 0.52631(17) 0.88895(17) 0.3202(3)
H65 H 0.5184 0.9063 0.3108
C36 C 0.5500(3) 0.8917(3) 0.2804(4)
H66 H 0.5612 0.8776 0.2920
C37 C 0.52781(14) 0.87011(14) 0.2387(3)
H67 H 0.5193 0.8862 0.2256
C38 C 0.49332(12) 0.83650(13) 0.2472(2)
H68 H 0.4794 0.8299 0.2167
C39 C 0.49134(14) 0.85436(13) 0.3259(2)
H69 H 0.4978 0.8361 0.3362
C40 C 0.46321(15) 0.85127(12) 0.3603(3)
H70 H 0.4415 0.8272 0.3585
H71 H 0.4724 0.8557 0.3934
C41 C 0.48394(14) 0.77722(13) 0.2333(2)
H72 H 0.4671 0.7781 0.2096
C42 C 0.51069(12) 0.76965(12) 0.20837(18)
H73 H 0.5281 0.7695 0.2318
C43 C 0.48918(11) 0.73307(10) 0.18421(16)
H74 H 0.4726(4) 0.7337(5) 0.1636(6)
C44 C 0.46845(12) 0.70528(12) 0.22226(17)
H75 H 0.4539 0.6814 0.2066
C45 C 0.46310(14) 0.74769(14) 0.2703(2)
H76 H 0.4804 0.7475 0.2939
C46 C 0.43265(12) 0.74743(14) 0.2971(2)
H77 H 0.4189 0.7244 0.3144
H78 H 0.4424 0.7670 0.3210
C47 C 0.65403(11) 0.73631(12) 0.59201(16)
H79 H 0.6707(5) 0.7446(5) 0.6213(6)
C48 C 0.70196(11) 0.86144(9) 0.61414(16)
H80 H 0.7116(5) 0.8580(5) 0.6425(5)
loop_
_geom_bond_atom_site_label_1
_geom_bond_atom_site_label_2
_geom_bond_site_symmetry_1
_geom_bond_site_symmetry_2
O1 H1 1_555 1_555
O2 H2 1_555 1_555
O3 C4 1_555 1_555
O4 H3 1_555 1_555
O5 C4 1_555 1_555
O6 H4 1_555 1_555
O7 H5 1_555 1_555
O8 C10 1_555 1_555
O9 H6 1_555 1_555
O10 C10 1_555 1_555
O11 H7 1_555 1_555
O12 H8 1_555 1_555
O13 C16 1_555 1_555
O14 H9 1_555 1_555
O15 C18 1_555 1_555
O16 H10 1_555 1_555
O17 H11 1_555 1_555
O18 C20 1_555 1_555
O19 H12 1_555 1_555
O20 C20 1_555 1_555
O21 H13 1_555 1_555
O22 H14 1_555 1_555
O23 C26 1_555 1_555
O24 H15 1_555 1_555
O25 C26 1_555 1_555
O26 H16 1_555 1_555
O27 H17 1_555 1_555
O28 C32 1_555 1_555
O29 H18 1_555 1_555
O30 C32 1_555 1_555
O31 H19 1_555 1_555
O32 H20 1_555 1_555
O33 C38 1_555 1_555
O34 H21 1_555 1_555
O35 C38 1_555 1_555
O36 H22 1_555 1_555
O37 H23 1_555 1_555
O38 C44 1_555 1_555
O39 H24 1_555 1_555
O40 C1 1_555 1_555
C1 H25 1_555 1_555
C2 O1 1_555 1_555
H26 C2 1_555 1_555
C3 O2 1_555 1_555
H27 C3 1_555 1_555
C4 C3 1_555 1_555
H28 C4 1_555 1_555
C5 O3 1_555 1_555
H29 C5 1_555 1_555
C6 O4 1_555 1_555
H30 C6 1_555 1_555
H31 C6 1_555 1_555
C7 O5 1_555 1_555
H32 C7 1_555 1_555
C8 O6 1_555 1_555
H33 C8 1_555 1_555
C9 O7 1_555 1_555
H34 C9 1_555 1_555
C10 C9 1_555 1_555
H35 C10 1_555 1_555
C11 O8 1_555 1_555
H36 C11 1_555 1_555
C12 O9 1_555 1_555
H37 C12 1_555 1_555
H38 C12 1_555 1_555
C13 O10 1_555 1_555
H39 C13 1_555 1_555
C14 O11 1_555 1_555
H40 C14 1_555 1_555
C15 O12 1_555 1_555
H41 C15 1_555 1_555
C16 C13 1_555 1_555
H42 C16 1_555 1_555
C17 O14 1_555 1_555
H43 C17 1_555 1_555
H44 C17 1_555 1_555
C18 H45 1_555 1_555
C19 O16 1_555 1_555
H46 C19 1_555 1_555
C20 H47 1_555 1_555
C21 O18 1_555 1_555
H48 C21 1_555 1_555
C22 O19 1_555 1_555
H49 C22 1_555 1_555
H50 C22 1_555 1_555
C23 O20 1_555 1_555
H51 C23 1_555 1_555
C24 O21 1_555 1_555
H52 C24 1_555 1_555
C25 O22 1_555 1_555
H53 C25 1_555 1_555
C26 C25 1_555 1_555
H54 C26 1_555 1_555
C27 O23 1_555 1_555
H55 C27 1_555 1_555
C28 O24 1_555 1_555
H56 C28 1_555 1_555
H57 C28 1_555 1_555
C29 O25 1_555 1_555
H58 C29 1_555 1_555
C30 O26 1_555 1_555
H59 C30 1_555 1_555
C31 O27 1_555 1_555
H60 C31 1_555 1_555
C32 C31 1_555 1_555
H61 C32 1_555 1_555
C33 O28 1_555 1_555
H62 C33 1_555 1_555
C34 O29 1_555 1_555
H63 C34 1_555 1_555
H64 C34 1_555 1_555
C35 O30 1_555 1_555
H65 C35 1_555 1_555
C36 O31 1_555 1_555
H66 C36 1_555 1_555
C37 O32 1_555 1_555
H67 C37 1_555 1_555
C38 C37 1_555 1_555
H68 C38 1_555 1_555
C39 O33 1_555 1_555
H69 C39 1_555 1_555
C40 O34 1_555 1_555
H70 C40 1_555 1_555
H71 C40 1_555 1_555
C41 O35 1_555 1_555
H72 C41 1_555 1_555
C42 O36 1_555 1_555
H73 C42 1_555 1_555
C43 O37 1_555 1_555
H74 C43 1_555 1_555
C44 O40 1_555 1_555
H75 C44 1_555 1_555
C45 O38 1_555 1_555
H76 C45 1_555 1_555
C46 O39 1_555 1_555
H77 C46 1_555 1_555
H78 C46 1_555 1_555
C47 O13 1_555 1_555
H79 C47 1_555 1_555
C48 O17 1_555 1_555
H80 C48 1_555 1_555
O15 C47 1_555 1_555
C1 C2 1_555 1_555
C1 C5 1_555 1_555
C2 C3 1_555 1_555
C5 C6 1_555 1_555
C7 C8 1_555 1_555
C7 C11 1_555 1_555
C8 C9 1_555 1_555
C11 C12 1_555 1_555
C13 C14 1_555 1_555
C14 C15 1_555 1_555
C15 C47 1_555 1_555
C16 C17 1_555 1_555
C18 C19 1_555 1_555
C18 C21 1_555 1_555
C19 C48 1_555 1_555
C20 C48 1_555 1_555
C21 C22 1_555 1_555
C23 C24 1_555 1_555
C23 C27 1_555 1_555
C24 C25 1_555 1_555
C27 C28 1_555 1_555
C29 C30 1_555 1_555
C29 C33 1_555 1_555
C30 C31 1_555 1_555
C33 C34 1_555 1_555
C35 C36 1_555 1_555
C35 C39 1_555 1_555
C36 C37 1_555 1_555
C39 C40 1_555 1_555
C41 C42 1_555 1_555
C41 C45 1_555 1_555
C42 C43 1_555 1_555
C43 C44 1_555 1_555
C45 C46 1_555 1_555

#END
