
#######################################################################
#
#                 Cambridge Crystallographic Data Centre
#                                CCDC 
#
#######################################################################
#
# If this CIF has been generated from an entry in the Cambridge 
# Structural Database, then it will include bibliographic, chemical, 
# crystal, experimental, refinement or atomic coordinate data resulting 
# from the CCDC's data processing and validation procedures.
#
#######################################################################

data_TEKZER
_chemical_formula_moiety         'C34 H24 B1 F4 N3 O2'
_chemical_name_systematic        
5,5-difluoro-1,9-bis(4-fluorophenyl)-3,7-bis(4-methoxyphenyl)-5H-4\l^5^,5\l^5^-dipyrrolo[1,2-c:2',1'-f][1,3,5,2]triazaborinine
_symmetry_cell_setting           cubic
_symmetry_space_group_name_H-M   'I a -3 d'
_symmetry_Int_Tables_number      230
_space_group_name_Hall           '-I 4bd 2c 3'
loop_
_symmetry_equiv_pos_site_id
_symmetry_equiv_pos_as_xyz
1 x,y,z
2 1/2-x,-y,1/2+z
3 -x,1/2+y,1/2-z
4 1/2+x,1/2-y,-z
5 z,x,y
6 1/2+z,1/2-x,-y
7 1/2-z,-x,1/2+y
8 -z,1/2+x,1/2-y
9 y,z,x
10 -y,1/2+z,1/2-x
11 1/2+y,1/2-z,-x
12 1/2-y,-z,1/2+x
13 3/4+y,1/4+x,1/4-z
14 3/4-y,3/4-x,3/4-z
15 1/4+y,1/4-x,3/4+z
16 1/4-y,3/4+x,1/4+z
17 3/4+x,1/4+z,1/4-y
18 1/4-x,3/4+z,1/4+y
19 3/4-x,3/4-z,3/4-y
20 1/4+x,1/4-z,3/4+y
21 3/4+z,1/4+y,1/4-x
22 1/4+z,1/4-y,3/4+x
23 1/4-z,3/4+y,1/4+x
24 3/4-z,3/4-y,3/4-x
25 1/2+x,1/2+y,1/2+z
26 -x,1/2-y,z
27 1/2-x,y,-z
28 x,-y,1/2-z
29 1/2+z,1/2+x,1/2+y
30 z,-x,1/2-y
31 -z,1/2-x,y
32 1/2-z,x,-y
33 1/2+y,1/2+z,1/2+x
34 1/2-y,z,-x
35 y,-z,1/2-x
36 -y,1/2-z,x
37 1/4+y,3/4+x,3/4-z
38 1/4-y,1/4-x,1/4-z
39 3/4+y,3/4-x,1/4+z
40 3/4-y,1/4+x,3/4+z
41 1/4+x,3/4+z,3/4-y
42 3/4-x,1/4+z,3/4+y
43 1/4-x,1/4-z,1/4-y
44 3/4+x,3/4-z,1/4+y
45 1/4+z,3/4+y,3/4-x
46 3/4+z,3/4-y,1/4+x
47 3/4-z,1/4+y,3/4+x
48 1/4-z,1/4-y,1/4-x
49 -x,-y,-z
50 1/2+x,y,1/2-z
51 x,1/2-y,1/2+z
52 1/2-x,1/2+y,z
53 -z,-x,-y
54 1/2-z,1/2+x,y
55 1/2+z,x,1/2-y
56 z,1/2-x,1/2+y
57 -y,-z,-x
58 y,1/2-z,1/2+x
59 1/2-y,1/2+z,x
60 1/2+y,z,1/2-x
61 1/4-y,3/4-x,3/4+z
62 1/4+y,1/4+x,1/4+z
63 3/4-y,3/4+x,1/4-z
64 3/4+y,1/4-x,3/4-z
65 1/4-x,3/4-z,3/4+y
66 3/4+x,1/4-z,3/4-y
67 1/4+x,1/4+z,1/4+y
68 3/4-x,3/4+z,1/4-y
69 1/4-z,3/4-y,3/4+x
70 3/4-z,3/4+y,1/4-x
71 3/4+z,1/4-y,3/4-x
72 1/4+z,1/4+y,1/4+x
73 1/2-x,1/2-y,1/2-z
74 x,1/2+y,-z
75 1/2+x,-y,z
76 -x,y,1/2+z
77 1/2-z,1/2-x,1/2-y
78 -z,x,1/2+y
79 z,1/2+x,-y
80 1/2+z,-x,y
81 1/2-y,1/2-z,1/2-x
82 1/2+y,-z,x
83 -y,z,1/2+x
84 y,1/2+z,-x
85 3/4-y,1/4-x,1/4+z
86 3/4+y,3/4+x,3/4+z
87 1/4-y,1/4+x,3/4-z
88 1/4+y,3/4-x,1/4-z
89 3/4-x,1/4-z,1/4+y
90 1/4+x,3/4-z,1/4-y
91 3/4+x,3/4+z,3/4+y
92 1/4-x,1/4+z,3/4-y
93 3/4-z,1/4-y,1/4+x
94 1/4-z,1/4+y,3/4-x
95 1/4+z,3/4-y,1/4-x
96 3/4+z,3/4+y,3/4+x
_cell_length_a                   16.1853(2)
_cell_length_b                   16.1853(2)
_cell_length_c                   19.9274(6)
_cell_angle_alpha                90
_cell_angle_beta                 90
_cell_angle_gamma                90
_cell_volume                     5220.26
_cell_formula_units_Z            16
loop_
_atom_site_label
_atom_site_type_symbol
_atom_site_fract_x
_atom_site_fract_y
_atom_site_fract_z
H1? H 0.3983 0.3401 0.4015
H2? H 0.2622 0.5901 -0.1498
F1? F 0.4356(2) 0.2252(2) 0.0052(1)
N1? N 0.4724(2) 0.3202(2) 0.0885(2)
N2? N 0.5000 0.2500 0.1895(2)
C1? C 0.4754(3) 0.3150(3) 0.1568(2)
C2? C 0.4405(3) 0.3946(3) 0.0732(2)
C3? C 0.4206(3) 0.4249(3) 0.0081(2)
C4? C 0.4471(3) 0.3893(3) 0.1848(2)
O1? O 0.3564(2) 0.5205(2) -0.1736(2)
C5? C 0.4269(3) 0.4355(3) 0.1333(2)
C6? C 0.4440(3) 0.4104(3) 0.2551(2)
C7? C 0.3755(3) 0.4932(3) -0.1130(2)
C8? C 0.4209(3) 0.4242(3) -0.1115(2)
C9? C 0.4431(3) 0.3912(3) -0.0523(2)
C10? C 0.3730(3) 0.4966(3) 0.0042(2)
C11? C 0.4374(4) 0.4560(4) 0.3832(2)
C12? C 0.4194(3) 0.3561(3) 0.3029(3)
C13? C 0.4604(3) 0.4870(3) 0.2739(3)
C14? C 0.3504(4) 0.5296(3) -0.0541(2)
B1? B 0.5000 0.2500 0.0432(3)
C15? C 0.4576(4) 0.5107(3) 0.3395(3)
C16? C 0.4152(4) 0.3771(4) 0.3686(2)
F2? F 0.4452(7) 0.4791(5) 0.4443(4)
C17? C 0.3093(6) 0.5936(5) -0.1790(4)
H3? H 0.4060 0.4889 0.1367
H4? H 0.4370 0.3990 -0.1513
H5? H 0.4752 0.3436 -0.0524
H6? H 0.3565 0.5222 0.0438
H7? H 0.4050 0.3027 0.2902
H8? H 0.4743 0.5259 0.2414
H9? H 0.3179 0.5770 -0.0549
H10? H 0.4698 0.5646 0.3522
H11? H 0.3426 0.6401 -0.1664
H12? H 0.2909 0.6003 -0.2245

#END
