
#######################################################################
#
#                 Cambridge Crystallographic Data Centre
#                                CCDC 
#
#######################################################################
#
# If this CIF has been generated from an entry in the Cambridge 
# Structural Database, then it will include bibliographic, chemical, 
# crystal, experimental, refinement or atomic coordinate data resulting 
# from the CCDC's data processing and validation procedures.
#
#######################################################################

data_ZODXEX
_chemical_name_common            PCN-426-Mg
_chemical_formula_moiety         'C32 H22 O8 4-,3(Mg1 2+),O1 2-'
_chemical_name_systematic        
"Tri-magnesium 2',3'',5'',6'-tetramethyl-1,1':4',1'':4'',1'''-quaterphenyl-3,3''',5,5'''-tetracarboxylate oxide unknown solvate"
_symmetry_cell_setting           cubic
_symmetry_space_group_name_H-M   'F m -3 m'
_symmetry_Int_Tables_number      225
_space_group_name_Hall           '-F 4 2 3'
loop_
_symmetry_equiv_pos_site_id
_symmetry_equiv_pos_as_xyz
1 x,y,z
2 -y,x,z
3 -x,-y,z
4 y,-x,z
5 x,-z,y
6 x,-y,-z
7 x,z,-y
8 z,y,-x
9 -x,y,-z
10 -z,y,x
11 z,x,y
12 y,z,x
13 -y,-z,x
14 z,-x,-y
15 -y,z,-x
16 -z,-x,y
17 -z,x,-y
18 y,-z,-x
19 y,x,-z
20 -y,-x,-z
21 -x,z,y
22 -x,-z,-y
23 z,-y,x
24 -z,-y,-x
25 x,1/2+y,1/2+z
26 -y,1/2+x,1/2+z
27 -x,1/2-y,1/2+z
28 y,1/2-x,1/2+z
29 x,1/2-z,1/2+y
30 x,1/2-y,1/2-z
31 x,1/2+z,1/2-y
32 z,1/2+y,1/2-x
33 -x,1/2+y,1/2-z
34 -z,1/2+y,1/2+x
35 z,1/2+x,1/2+y
36 y,1/2+z,1/2+x
37 -y,1/2-z,1/2+x
38 z,1/2-x,1/2-y
39 -y,1/2+z,1/2-x
40 -z,1/2-x,1/2+y
41 -z,1/2+x,1/2-y
42 y,1/2-z,1/2-x
43 y,1/2+x,1/2-z
44 -y,1/2-x,1/2-z
45 -x,1/2+z,1/2+y
46 -x,1/2-z,1/2-y
47 z,1/2-y,1/2+x
48 -z,1/2-y,1/2-x
49 1/2+x,y,1/2+z
50 1/2-y,x,1/2+z
51 1/2-x,-y,1/2+z
52 1/2+y,-x,1/2+z
53 1/2+x,-z,1/2+y
54 1/2+x,-y,1/2-z
55 1/2+x,z,1/2-y
56 1/2+z,y,1/2-x
57 1/2-x,y,1/2-z
58 1/2-z,y,1/2+x
59 1/2+z,x,1/2+y
60 1/2+y,z,1/2+x
61 1/2-y,-z,1/2+x
62 1/2+z,-x,1/2-y
63 1/2-y,z,1/2-x
64 1/2-z,-x,1/2+y
65 1/2-z,x,1/2-y
66 1/2+y,-z,1/2-x
67 1/2+y,x,1/2-z
68 1/2-y,-x,1/2-z
69 1/2-x,z,1/2+y
70 1/2-x,-z,1/2-y
71 1/2+z,-y,1/2+x
72 1/2-z,-y,1/2-x
73 1/2+x,1/2+y,z
74 1/2-y,1/2+x,z
75 1/2-x,1/2-y,z
76 1/2+y,1/2-x,z
77 1/2+x,1/2-z,y
78 1/2+x,1/2-y,-z
79 1/2+x,1/2+z,-y
80 1/2+z,1/2+y,-x
81 1/2-x,1/2+y,-z
82 1/2-z,1/2+y,x
83 1/2+z,1/2+x,y
84 1/2+y,1/2+z,x
85 1/2-y,1/2-z,x
86 1/2+z,1/2-x,-y
87 1/2-y,1/2+z,-x
88 1/2-z,1/2-x,y
89 1/2-z,1/2+x,-y
90 1/2+y,1/2-z,-x
91 1/2+y,1/2+x,-z
92 1/2-y,1/2-x,-z
93 1/2-x,1/2+z,y
94 1/2-x,1/2-z,-y
95 1/2+z,1/2-y,x
96 1/2-z,1/2-y,-x
97 -x,-y,-z
98 y,-x,-z
99 x,y,-z
100 -y,x,-z
101 -x,z,-y
102 -x,y,z
103 -x,-z,y
104 -z,-y,x
105 x,-y,z
106 z,-y,-x
107 -z,-x,-y
108 -y,-z,-x
109 y,z,-x
110 -z,x,y
111 y,-z,x
112 z,x,-y
113 z,-x,y
114 -y,z,x
115 -y,-x,z
116 y,x,z
117 x,-z,-y
118 x,z,y
119 -z,y,-x
120 z,y,x
121 -x,1/2-y,1/2-z
122 y,1/2-x,1/2-z
123 x,1/2+y,1/2-z
124 -y,1/2+x,1/2-z
125 -x,1/2+z,1/2-y
126 -x,1/2+y,1/2+z
127 -x,1/2-z,1/2+y
128 -z,1/2-y,1/2+x
129 x,1/2-y,1/2+z
130 z,1/2-y,1/2-x
131 -z,1/2-x,1/2-y
132 -y,1/2-z,1/2-x
133 y,1/2+z,1/2-x
134 -z,1/2+x,1/2+y
135 y,1/2-z,1/2+x
136 z,1/2+x,1/2-y
137 z,1/2-x,1/2+y
138 -y,1/2+z,1/2+x
139 -y,1/2-x,1/2+z
140 y,1/2+x,1/2+z
141 x,1/2-z,1/2-y
142 x,1/2+z,1/2+y
143 -z,1/2+y,1/2-x
144 z,1/2+y,1/2+x
145 1/2-x,-y,1/2-z
146 1/2+y,-x,1/2-z
147 1/2+x,y,1/2-z
148 1/2-y,x,1/2-z
149 1/2-x,z,1/2-y
150 1/2-x,y,1/2+z
151 1/2-x,-z,1/2+y
152 1/2-z,-y,1/2+x
153 1/2+x,-y,1/2+z
154 1/2+z,-y,1/2-x
155 1/2-z,-x,1/2-y
156 1/2-y,-z,1/2-x
157 1/2+y,z,1/2-x
158 1/2-z,x,1/2+y
159 1/2+y,-z,1/2+x
160 1/2+z,x,1/2-y
161 1/2+z,-x,1/2+y
162 1/2-y,z,1/2+x
163 1/2-y,-x,1/2+z
164 1/2+y,x,1/2+z
165 1/2+x,-z,1/2-y
166 1/2+x,z,1/2+y
167 1/2-z,y,1/2-x
168 1/2+z,y,1/2+x
169 1/2-x,1/2-y,-z
170 1/2+y,1/2-x,-z
171 1/2+x,1/2+y,-z
172 1/2-y,1/2+x,-z
173 1/2-x,1/2+z,-y
174 1/2-x,1/2+y,z
175 1/2-x,1/2-z,y
176 1/2-z,1/2-y,x
177 1/2+x,1/2-y,z
178 1/2+z,1/2-y,-x
179 1/2-z,1/2-x,-y
180 1/2-y,1/2-z,-x
181 1/2+y,1/2+z,-x
182 1/2-z,1/2+x,y
183 1/2+y,1/2-z,x
184 1/2+z,1/2+x,-y
185 1/2+z,1/2-x,y
186 1/2-y,1/2+z,x
187 1/2-y,1/2-x,z
188 1/2+y,1/2+x,z
189 1/2+x,1/2-z,-y
190 1/2+x,1/2+z,y
191 1/2-z,1/2+y,-x
192 1/2+z,1/2+y,x
_cell_length_a                   41.091(4)
_cell_length_b                   41.091(4)
_cell_length_c                   41.091(4)
_cell_angle_alpha                90
_cell_angle_beta                 90
_cell_angle_gamma                90
_cell_volume                     69380.9
_exptl_crystal_colour            colorless
_exptl_crystal_description       Block
_cell_formula_units_Z            24
_chemical_properties_physical    Moisture-sensitive
loop_
_atom_site_label
_atom_site_type_symbol
_atom_site_fract_x
_atom_site_fract_y
_atom_site_fract_z
Mg2 Mg 0.4718(2) -0.0282(2) 0.2163(4)
O1 O 0.5000 0.0000 0.1889(2)
O2 O 0.5000 0.0000 0.0856(2)
O3 O 0.5000 0.05024(14) 0.13566(13)
C1 C 0.5000 0.07050(11) 0.1565(3)
C2 C 0.5000 0.11478(10) 0.11478(10)
H1 H 0.5000 0.0984 0.0984
C3 C 0.5000 0.10606(11) 0.14746(10)
C4 C 0.5000 0.12997(10) 0.17138(11)
H2 H 0.5000 0.1240 0.1937
C5 C 0.5000 0.16266(11) 0.16266(11)
C6 C 0.5000 0.18914(12) 0.18914(12)
C7 C 0.47073(4) 0.20112(11) 0.20112(11)
C8 C 0.47072(4) 0.22504(11) 0.22504(11)
H3 H 0.4507 0.2332 0.2332
C9 C 0.5000 0.23702(12) 0.23702(12)
C10 C 0.4406(3) 0.18757(17) 0.18757(17)
H4 H 0.4283 0.2050 0.1784
H5 H 0.4449 0.1713 0.1714
O4 O 0.5115(2) 0.0650(2) 0.18678(18)
O3T O 0.5000 0.13566(13) 0.05024(14)
C1T C 0.5000 0.1565(3) 0.07050(11)
C3T C 0.5000 0.14746(10) 0.10606(11)
C4T C 0.5000 0.17138(11) 0.12997(10)
H2T H 0.5000 0.1937 0.1240
C7T C 0.52927(4) 0.20112(11) 0.20112(11)
C8T C 0.52928(4) 0.22504(11) 0.22504(11)
H3T H 0.5493 0.2332 0.2332
C10T C 0.5594(3) 0.18757(17) 0.18757(17)
H4T H 0.5717 0.1784 0.2050
H5T H 0.5551 0.1714 0.1713
O4T O 0.4885(2) 0.18678(18) 0.0650(2)
O3CA O 0.5000 0.44976(14) 0.36434(13)
C1CA C 0.5000 0.42950(11) 0.3435(3)
C2CA C 0.5000 0.38522(10) 0.38522(10)
H1CA H 0.5000 0.4016 0.4016
C3CA C 0.5000 0.39394(11) 0.35254(10)
C4CA C 0.5000 0.37003(10) 0.32862(11)
H2CA H 0.5000 0.3760 0.3063
C5CA C 0.5000 0.33734(11) 0.33734(11)
C6CA C 0.5000 0.31086(12) 0.31086(12)
C7CA C 0.47073(4) 0.29888(11) 0.29888(11)
C8CA C 0.47072(4) 0.27496(11) 0.27496(11)
H3CA H 0.4507 0.2668 0.2668
C9CA C 0.5000 0.26298(12) 0.26298(12)
C10CA C 0.4406(3) 0.31243(17) 0.31243(17)
H4CA H 0.4283 0.2950 0.3216
H5CA H 0.4449 0.3287 0.3286
O4CA O 0.5115(2) 0.4350(2) 0.31322(18)
O3SA O 0.5000 0.36434(13) 0.44976(14)
C1SA C 0.5000 0.3435(3) 0.42950(11)
C3SA C 0.5000 0.35254(10) 0.39394(11)
C4SA C 0.5000 0.32862(11) 0.37003(10)
H2SA H 0.5000 0.3063 0.3760
C7SA C 0.52927(4) 0.29888(11) 0.29888(11)
C8SA C 0.52928(4) 0.27496(11) 0.27496(11)
H3SA H 0.5493 0.2668 0.2668
C10SA C 0.5594(3) 0.31243(17) 0.31243(17)
H4SA H 0.5717 0.3216 0.2950
H5SA H 0.5551 0.3286 0.3287
O4SA O 0.4885(2) 0.31322(18) 0.4350(2)
H4WC H 0.5717 0.2050 0.1784
O4WC O 0.4885(2) 0.0650(2) 0.18678(18)
H4MD H 0.4283 0.1784 0.2050
O4MD O 0.5115(2) 0.18678(18) 0.0650(2)
H4PD H 0.5717 0.2950 0.3216
O4PD O 0.4885(2) 0.4350(2) 0.31322(18)
H4JE H 0.4283 0.3216 0.2950
O4JE O 0.5115(2) 0.31322(18) 0.4350(2)
O5 O 0.4319(5) -0.0681(5) 0.2361(6)
Mg1 Mg 0.5000 0.0000 0.13649(9)
loop_
_geom_bond_atom_site_label_1
_geom_bond_atom_site_label_2
_geom_bond_site_symmetry_1
_geom_bond_site_symmetry_2
O3 C1 1_555 1_555
C1 C3 1_555 1_555
C2 H1 1_555 1_555
C3 C2 1_555 1_555
C4 C3 1_555 1_555
H2 C4 1_555 1_555
C5 C4 1_555 1_555
C6 C5 1_555 1_555
C7 C6 1_555 1_555
C8 C7 1_555 1_555
H3 C8 1_555 1_555
C9 C8 1_555 1_555
C10 C7 1_555 1_555
H4 C10 1_555 1_555
H5 C10 1_555 1_555
O4 C1 1_555 1_555
O3T C1T 1_555 1_555
C1T C3T 1_555 1_555
C3T C2 1_555 1_555
C4T C5 1_555 1_555
H2T C4T 1_555 1_555
C7T C6 1_555 1_555
C8T C9 1_555 1_555
H3T C8T 1_555 1_555
C10T C7T 1_555 1_555
H4T C10T 1_555 1_555
H5T C10T 1_555 1_555
O4T C1T 1_555 1_555
O3CA C1CA 1_555 1_555
C1CA C3CA 1_555 1_555
C2CA H1CA 1_555 1_555
C3CA C2CA 1_555 1_555
C4CA C3CA 1_555 1_555
H2CA C4CA 1_555 1_555
C5CA C4CA 1_555 1_555
C6CA C5CA 1_555 1_555
C7CA C6CA 1_555 1_555
C8CA C7CA 1_555 1_555
H3CA C8CA 1_555 1_555
C9CA C9 1_555 1_555
C10CA C7CA 1_555 1_555
H4CA C10CA 1_555 1_555
H5CA C10CA 1_555 1_555
O4CA C1CA 1_555 1_555
O3SA C1SA 1_555 1_555
C1SA C3SA 1_555 1_555
C3SA C2CA 1_555 1_555
C4SA C5CA 1_555 1_555
H2SA C4SA 1_555 1_555
C7SA C6CA 1_555 1_555
C8SA C9CA 1_555 1_555
H3SA C8SA 1_555 1_555
C10SA C7SA 1_555 1_555
H4SA C10SA 1_555 1_555
H5SA C10SA 1_555 1_555
O4SA C1SA 1_555 1_555
H4WC C10T 1_555 1_555
O4WC C1 1_555 1_555
H4MD C10 1_555 1_555
O4MD C1T 1_555 1_555
H4PD C10SA 1_555 1_555
O4PD C1CA 1_555 1_555
H4JE C10CA 1_555 1_555
O4JE C1SA 1_555 1_555
O4 O4WC 1_555 1_555
C3T C4T 1_555 1_555
C7T C8T 1_555 1_555
O4T O4MD 1_555 1_555
C8CA C9CA 1_555 1_555
O4CA O4PD 1_555 1_555
C3SA C4SA 1_555 1_555
C7SA C8SA 1_555 1_555
O4SA O4JE 1_555 1_555

#END
