data_image0
_cell_length_a       21.731
_cell_length_b       19.737
_cell_length_c       22.997
_cell_angle_alpha    90
_cell_angle_beta     105.51
_cell_angle_gamma    90

_symmetry_space_group_name_H-M    "P 1"
_symmetry_int_tables_number       1

loop_
  _symmetry_equiv_pos_as_xyz
  'x, y, z'

loop_
  _atom_site_label
  _atom_site_occupancy
  _atom_site_fract_x
  _atom_site_fract_y
  _atom_site_fract_z
  _atom_site_thermal_displace_type
  _atom_site_B_iso_or_equiv
  _atom_site_type_symbol
  N1       1.0000 0.38035  0.44672  0.48336  Biso   1.000  N
  C1       1.0000 0.35206  0.43933  0.41851  Biso   1.000  C
  C2       1.0000 0.41679  0.39920  0.50935  Biso   1.000  C
  C3       1.0000 0.27907  0.43684  0.40597  Biso   1.000  C
  C4       1.0000 0.37260  0.49861  0.38620  Biso   1.000  C
  H1       1.0000 0.36745  0.39621  0.40443  Biso   1.000  H
  C5       1.0000 0.45178  0.40138  0.57379  Biso   1.000  C
  H2       1.0000 0.42174  0.36059  0.48634  Biso   1.000  H
  C6       1.0000 0.24869  0.43441  0.33764  Biso   1.000  C
  N2       1.0000 0.26129  0.37508  0.43209  Biso   1.000  N
  H3       1.0000 0.26342  0.47738  0.42384  Biso   1.000  H
  C7       1.0000 0.34140  0.49628  0.31743  Biso   1.000  C
  H4       1.0000 0.41962  0.49800  0.39383  Biso   1.000  H
  H5       1.0000 0.36071  0.54152  0.40272  Biso   1.000  H
  C8       1.0000 0.44418  0.45402  0.61233  Biso   1.000  C
  C9       1.0000 0.49604  0.34980  0.59622  Biso   1.000  C
  H6       1.0000 0.26110  0.39170  0.32131  Biso   1.000  H
  H7       1.0000 0.20162  0.43472  0.32970  Biso   1.000  H
  C10      1.0000 0.26912  0.49410  0.30511  Biso   1.000  C
  C11      1.0000 0.22746  0.38136  0.46928  Biso   1.000  C
  H8       1.0000 0.35413  0.53681  0.29802  Biso   1.000  H
  H9       1.0000 0.35633  0.45559  0.29992  Biso   1.000  H
  C12      1.0000 0.47955  0.45438  0.67226  Biso   1.000  C
  H10      1.0000 0.41473  0.48949  0.59721  Biso   1.000  H
  H11      1.0000 0.50121  0.31388  0.57041  Biso   1.000  H
  C13      1.0000 0.53258  0.35056  0.65624  Biso   1.000  C
  H12      1.0000 0.25384  0.53691  0.31891  Biso   1.000  H
  H13      1.0000 0.24940  0.48989  0.26111  Biso   1.000  H
  C14      1.0000 0.20292  0.32254  0.49559  Biso   1.000  C
  H14      1.0000 0.21773  0.42560  0.48043  Biso   1.000  H
  C15      1.0000 0.52371  0.40229  0.69433  Biso   1.000  C
  C16      1.0000 0.47125  0.51031  0.71188  Biso   1.000  C
  C17      1.0000 0.58223  0.29898  0.67880  Biso   1.000  C
  C18      1.0000 0.21699  0.25617  0.48173  Biso   1.000  C
  C19      1.0000 0.16459  0.33343  0.53381  Biso   1.000  C
  H15      1.0000 0.54766  0.40229  0.73553  Biso   1.000  H
  N3       1.0000 0.50329  0.51426  0.76608  Biso   1.000  N
  H16      1.0000 0.44064  0.54461  0.69591  Biso   1.000  H
  N4       1.0000 0.60084  0.25845  0.64473  Biso   1.000  N
  H17      1.0000 0.60113  0.29609  0.72104  Biso   1.000  H
  C20      1.0000 0.19273  0.20115  0.50592  Biso   1.000  C
  H18      1.0000 0.24353  0.24882  0.45551  Biso   1.000  H
  C21      1.0000 0.13951  0.27831  0.55868  Biso   1.000  C
  H19      1.0000 0.15514  0.37838  0.54333  Biso   1.000  H
  C22      1.0000 0.49084  0.57146  0.80191  Biso   1.000  C
  C23      1.0000 0.65100  0.20976  0.67240  Biso   1.000  C
  C24      1.0000 0.15309  0.21290  0.54455  Biso   1.000  C
  C25      1.0000 0.20742  0.13117  0.49085  Biso   1.000  C
  C26      1.0000 0.09805  0.29022  0.59934  Biso   1.000  C
  H20      1.0000 0.45635  0.60050  0.77632  Biso   1.000  H
  C27      1.0000 0.55185  0.61332  0.82434  Biso   1.000  C
  C28      1.0000 0.46896  0.54350  0.85516  Biso   1.000  C
  C29      1.0000 0.62369  0.13857  0.66044  Biso   1.000  C
  C30      1.0000 0.70749  0.21878  0.64500  Biso   1.000  C
  H21      1.0000 0.66554  0.21792  0.71694  Biso   1.000  H
  H22      1.0000 0.13563  0.17561  0.56093  Biso   1.000  H
  N5       1.0000 0.18212  0.08010  0.50795  Biso   1.000  N
  H23      1.0000 0.23692  0.12449  0.46743  Biso   1.000  H
  N6       1.0000 0.08085  0.34899  0.60981  Biso   1.000  N
  H24      1.0000 0.08394  0.25252  0.61811  Biso   1.000  H
  H25      1.0000 0.58715  0.58332  0.84564  Biso   1.000  H
  H26      1.0000 0.56355  0.63338  0.78923  Biso   1.000  H
  C31      1.0000 0.54331  0.66981  0.86685  Biso   1.000  C
  N7       1.0000 0.40822  0.50788  0.83291  Biso   1.000  N
  C32      1.0000 0.46033  0.60034  0.89704  Biso   1.000  C
  H27      1.0000 0.50187  0.51102  0.87831  Biso   1.000  H
  N8       1.0000 0.57307  0.13021  0.69117  Biso   1.000  N
  H28      1.0000 0.60574  0.13168  0.61603  Biso   1.000  H
  C33      1.0000 0.67540  0.08588  0.68526  Biso   1.000  C
  C34      1.0000 0.75933  0.16659  0.66964  Biso   1.000  C
  H29      1.0000 0.69230  0.21432  0.60060  Biso   1.000  H
  H30      1.0000 0.72554  0.26488  0.65430  Biso   1.000  H
  C35      1.0000 0.20048  0.01312  0.49103  Biso   1.000  C
  C36      1.0000 0.03780  0.35446  0.64857  Biso   1.000  C
  H31      1.0000 0.58436  0.69398  0.88215  Biso   1.000  H
  H32      1.0000 0.51143  0.70269  0.84411  Biso   1.000  H
  C37      1.0000 0.52176  0.64290  0.91897  Biso   1.000  C
  C38      1.0000 0.40703  0.44551  0.84609  Biso   1.000  C
  H33      1.0000 0.44887  0.58069  0.93233  Biso   1.000  H
  H34      1.0000 0.42483  0.62998  0.87551  Biso   1.000  H
  C39      1.0000 0.51934  0.11060  0.65967  Biso   1.000  C
  H35      1.0000 0.65725  0.03993  0.67560  Biso   1.000  H
  H36      1.0000 0.69014  0.09008  0.72971  Biso   1.000  H
  C40      1.0000 0.73213  0.09480  0.65859  Biso   1.000  C
  H37      1.0000 0.77754  0.17379  0.71351  Biso   1.000  H
  H38      1.0000 0.79411  0.17211  0.64961  Biso   1.000  H
  H39      1.0000 0.23141  0.01819  0.46603  Biso   1.000  H
  C41      1.0000 0.23181  0.97340  0.54857  Biso   1.000  C
  C42      1.0000 0.14086  0.97538  0.45484  Biso   1.000  C
  C43      1.0000 0.06615  0.40609  0.69866  Biso   1.000  C
  H40      1.0000 0.03366  0.30942  0.66694  Biso   1.000  H
  C44      1.0000 0.97273  0.37762  0.60985  Biso   1.000  C
  H41      1.0000 0.51367  0.68121  0.94375  Biso   1.000  H
  H42      1.0000 0.55599  0.61458  0.94465  Biso   1.000  H
  C45      1.0000 0.35015  0.40158  0.82967  Biso   1.000  C
  H43      1.0000 0.44597  0.42550  0.86843  Biso   1.000  H
  C46      1.0000 0.46451  0.09784  0.68481  Biso   1.000  C
  H44      1.0000 0.51372  0.10361  0.61770  Biso   1.000  H
  H45      1.0000 0.71832  0.08578  0.61463  Biso   1.000  H
  H46      1.0000 0.76585  0.06161  0.67723  Biso   1.000  H
  N9       1.0000 0.29182  0.00725  0.57980  Biso   1.000  N
  H47      1.0000 0.20246  0.97239  0.57542  Biso   1.000  H
  C47      1.0000 0.24702  0.90100  0.53322  Biso   1.000  C
  H48      1.0000 0.12194  0.00030  0.41693  Biso   1.000  H
  C48      1.0000 0.15551  0.90399  0.43995  Biso   1.000  C
  H49      1.0000 0.10883  0.97431  0.47839  Biso   1.000  H
  N10      1.0000 0.12468  0.37701  0.73783  Biso   1.000  N
  H50      1.0000 0.07652  0.44900  0.68020  Biso   1.000  H
  C49      1.0000 0.01925  0.42104  0.73603  Biso   1.000  C
  C50      1.0000 0.92675  0.39322  0.64821  Biso   1.000  C
  H51      1.0000 0.95416  0.34159  0.58034  Biso   1.000  H
  H52      1.0000 0.97818  0.41860  0.58702  Biso   1.000  H
  C51      1.0000 0.29184  0.42316  0.78964  Biso   1.000  C
  C52      1.0000 0.35306  0.33830  0.85688  Biso   1.000  C
  C53      1.0000 0.40820  0.07311  0.64794  Biso   1.000  C
  C54      1.0000 0.46939  0.11000  0.74645  Biso   1.000  C
  C55      1.0000 0.29669  0.02908  0.63246  Biso   1.000  C
  H53      1.0000 0.27942  0.90221  0.51012  Biso   1.000  H
  H54      1.0000 0.26525  0.87572  0.57113  Biso   1.000  H
  C56      1.0000 0.18762  0.86442  0.49631  Biso   1.000  C
  H55      1.0000 0.18394  0.90500  0.41260  Biso   1.000  H
  H56      1.0000 0.11544  0.88088  0.41851  Biso   1.000  H
  C57      1.0000 0.17693  0.40599  0.73923  Biso   1.000  C
  H57      1.0000 0.03754  0.45610  0.76653  Biso   1.000  H
  H58      1.0000 0.01248  0.37939  0.75764  Biso   1.000  H
  C58      1.0000 0.95504  0.44581  0.69600  Biso   1.000  C
  H59      1.0000 0.88585  0.41019  0.62190  Biso   1.000  H
  H60      1.0000 0.91779  0.35112  0.66793  Biso   1.000  H
  C59      1.0000 0.23838  0.38177  0.77863  Biso   1.000  C
  H61      1.0000 0.28936  0.46598  0.77032  Biso   1.000  H
  C60      1.0000 0.29950  0.29614  0.84551  Biso   1.000  C
  H62      1.0000 0.39207  0.32350  0.88364  Biso   1.000  H
  C61      1.0000 0.35568  0.05994  0.67050  Biso   1.000  C
  H63      1.0000 0.40503  0.06490  0.60651  Biso   1.000  H
  C62      1.0000 0.41757  0.09662  0.76919  Biso   1.000  C
  H64      1.0000 0.50795  0.12722  0.77213  Biso   1.000  H
  H65      1.0000 0.26072  0.02549  0.64830  Biso   1.000  H
  H66      1.0000 0.19973  0.81892  0.48480  Biso   1.000  H
  H67      1.0000 0.15725  0.85819  0.52122  Biso   1.000  H
  H68      1.0000 0.17676  0.44439  0.71423  Biso   1.000  H
  H69      1.0000 0.92521  0.45422  0.72113  Biso   1.000  H
  H70      1.0000 0.96117  0.48888  0.67632  Biso   1.000  H
  C63      1.0000 0.24228  0.31823  0.80656  Biso   1.000  C
  C64      1.0000 0.30150  0.22972  0.87515  Biso   1.000  C
  C65      1.0000 0.36067  0.07235  0.73075  Biso   1.000  C
  C66      1.0000 0.42579  0.10599  0.83517  Biso   1.000  C
  H71      1.0000 0.20556  0.29001  0.79893  Biso   1.000  H
  N11      1.0000 0.35131  0.20809  0.91347  Biso   1.000  N
  H72      1.0000 0.26434  0.20211  0.86532  Biso   1.000  H
  H73      1.0000 0.32497  0.06419  0.74622  Biso   1.000  H
  N12      1.0000 0.38380  0.08542  0.86044  Biso   1.000  N
  H74      1.0000 0.46313  0.12768  0.85882  Biso   1.000  H
  C67      1.0000 0.34580  0.14095  0.93887  Biso   1.000  C
  C68      1.0000 0.39711  0.09449  0.92538  Biso   1.000  C
  H75      1.0000 0.30247  0.12180  0.91974  Biso   1.000  H
  C69      1.0000 0.35455  0.14820  0.00670  Biso   1.000  C
  C70      1.0000 0.39565  0.02538  0.95453  Biso   1.000  C
  H76      1.0000 0.44028  0.11552  0.94131  Biso   1.000  H
  H77      1.0000 0.31997  0.17683  0.01410  Biso   1.000  H
  H78      1.0000 0.39577  0.17080  0.02520  Biso   1.000  H
  C71      1.0000 0.35337  0.07798  0.03603  Biso   1.000  C
  H79      1.0000 0.35466  0.00269  0.93522  Biso   1.000  H
  H80      1.0000 0.43058  0.99691  0.94754  Biso   1.000  H
  C72      1.0000 0.40317  0.03111  0.02222  Biso   1.000  C
  H81      1.0000 0.36190  0.08330  0.08030  Biso   1.000  H
  H82      1.0000 0.31050  0.05761  0.02064  Biso   1.000  H
  H83      1.0000 0.39908  0.98561  0.03883  Biso   1.000  H
  H84      1.0000 0.44637  0.04859  0.04221  Biso   1.000  H
  C73      1.0000 0.58325  0.39920  0.49071  Biso   1.000  C
  C74      1.0000 0.54825  0.40138  0.42623  Biso   1.000  C
  N13      1.0000 0.61972  0.44672  0.51666  Biso   1.000  N
  H85      1.0000 0.57831  0.36059  0.51373  Biso   1.000  H
  C75      1.0000 0.50399  0.34980  0.40380  Biso   1.000  C
  C76      1.0000 0.55586  0.45402  0.38773  Biso   1.000  C
  C77      1.0000 0.64803  0.43933  0.58156  Biso   1.000  C
  C78      1.0000 0.46745  0.35056  0.34378  Biso   1.000  C
  H86      1.0000 0.49882  0.31388  0.42961  Biso   1.000  H
  C79      1.0000 0.52053  0.45438  0.32776  Biso   1.000  C
  H87      1.0000 0.58530  0.48949  0.40281  Biso   1.000  H
  C80      1.0000 0.72097  0.43684  0.59410  Biso   1.000  C
  C81      1.0000 0.62743  0.49861  0.61382  Biso   1.000  C
  H88      1.0000 0.63264  0.39621  0.59564  Biso   1.000  H
  C82      1.0000 0.41782  0.29898  0.32126  Biso   1.000  C
  C83      1.0000 0.47636  0.40229  0.30569  Biso   1.000  C
  C84      1.0000 0.52883  0.51031  0.28814  Biso   1.000  C
  N14      1.0000 0.73878  0.37508  0.56793  Biso   1.000  N
  H89      1.0000 0.73662  0.47738  0.57623  Biso   1.000  H
  C85      1.0000 0.75140  0.43441  0.66242  Biso   1.000  C
  C86      1.0000 0.65864  0.49628  0.68264  Biso   1.000  C
  H90      1.0000 0.58042  0.49800  0.60624  Biso   1.000  H
  H91      1.0000 0.63932  0.54152  0.59730  Biso   1.000  H
  N15      1.0000 0.39925  0.25845  0.35533  Biso   1.000  N
  H92      1.0000 0.39892  0.29609  0.27902  Biso   1.000  H
  H93      1.0000 0.45242  0.40229  0.26449  Biso   1.000  H
  N16      1.0000 0.49674  0.51426  0.23394  Biso   1.000  N
  H94      1.0000 0.55939  0.54461  0.30411  Biso   1.000  H
  C87      1.0000 0.77257  0.38136  0.53074  Biso   1.000  C
  H95      1.0000 0.73893  0.39170  0.67871  Biso   1.000  H
  H96      1.0000 0.79845  0.43472  0.67032  Biso   1.000  H
  C88      1.0000 0.73096  0.49410  0.69492  Biso   1.000  C
  H97      1.0000 0.64594  0.53681  0.70200  Biso   1.000  H
  H98      1.0000 0.64375  0.45559  0.70010  Biso   1.000  H
  C89      1.0000 0.34907  0.20976  0.32762  Biso   1.000  C
  C90      1.0000 0.50924  0.57146  0.19811  Biso   1.000  C
  C91      1.0000 0.79717  0.32254  0.50448  Biso   1.000  C
  H99      1.0000 0.78231  0.42560  0.51960  Biso   1.000  H
  H100     1.0000 0.74624  0.53691  0.68111  Biso   1.000  H
  H101     1.0000 0.75063  0.48989  0.73891  Biso   1.000  H
  C92      1.0000 0.37635  0.13857  0.33963  Biso   1.000  C
  C93      1.0000 0.29254  0.21878  0.35502  Biso   1.000  C
  H102     1.0000 0.33450  0.21792  0.28313  Biso   1.000  H
  H103     1.0000 0.54372  0.60050  0.22370  Biso   1.000  H
  C94      1.0000 0.44819  0.61332  0.17573  Biso   1.000  C
  C95      1.0000 0.53108  0.54350  0.14486  Biso   1.000  C
  C96      1.0000 0.78304  0.25617  0.51829  Biso   1.000  C
  C97      1.0000 0.83545  0.33343  0.46626  Biso   1.000  C
  N17      1.0000 0.42702  0.13021  0.30890  Biso   1.000  N
  H104     1.0000 0.39430  0.13168  0.38403  Biso   1.000  H
  C98      1.0000 0.32469  0.08588  0.31481  Biso   1.000  C
  C99      1.0000 0.24071  0.16659  0.33042  Biso   1.000  C
  H105     1.0000 0.30773  0.21432  0.39942  Biso   1.000  H
  H106     1.0000 0.27454  0.26488  0.34572  Biso   1.000  H
  H107     1.0000 0.41290  0.58332  0.15443  Biso   1.000  H
  H108     1.0000 0.43649  0.63338  0.21079  Biso   1.000  H
  C100     1.0000 0.45673  0.66981  0.13322  Biso   1.000  C
  N18      1.0000 0.59182  0.50788  0.16715  Biso   1.000  N
  C101     1.0000 0.53975  0.60034  0.10298  Biso   1.000  C
  H109     1.0000 0.49820  0.51102  0.12171  Biso   1.000  H
  C102     1.0000 0.80730  0.20115  0.49410  Biso   1.000  C
  H110     1.0000 0.75650  0.24882  0.54451  Biso   1.000  H
  C103     1.0000 0.86054  0.27831  0.44139  Biso   1.000  C
  H111     1.0000 0.84491  0.37838  0.45673  Biso   1.000  H
  C104     1.0000 0.48074  0.11060  0.34035  Biso   1.000  C
  H112     1.0000 0.34283  0.03993  0.32442  Biso   1.000  H
  H113     1.0000 0.30989  0.09008  0.27031  Biso   1.000  H
  C105     1.0000 0.26790  0.09480  0.34143  Biso   1.000  C
  H114     1.0000 0.22254  0.17379  0.28651  Biso   1.000  H
  H115     1.0000 0.20592  0.17211  0.35041  Biso   1.000  H
  H116     1.0000 0.41573  0.69398  0.11792  Biso   1.000  H
  H117     1.0000 0.48860  0.70269  0.15591  Biso   1.000  H
  C106     1.0000 0.47829  0.64290  0.08109  Biso   1.000  C
  C107     1.0000 0.59301  0.44551  0.15393  Biso   1.000  C
  H118     1.0000 0.55121  0.58069  0.06769  Biso   1.000  H
  H119     1.0000 0.57520  0.62998  0.12451  Biso   1.000  H
  C108     1.0000 0.79261  0.13117  0.50917  Biso   1.000  C
  C109     1.0000 0.84694  0.21290  0.45547  Biso   1.000  C
  C110     1.0000 0.90198  0.29022  0.40069  Biso   1.000  C
  C111     1.0000 0.53557  0.09784  0.31521  Biso   1.000  C
  H120     1.0000 0.48631  0.10361  0.38232  Biso   1.000  H
  H121     1.0000 0.28173  0.08578  0.38543  Biso   1.000  H
  H122     1.0000 0.23423  0.06161  0.32280  Biso   1.000  H
  H123     1.0000 0.48642  0.68121  0.05632  Biso   1.000  H
  H124     1.0000 0.44410  0.61458  0.05542  Biso   1.000  H
  C112     1.0000 0.64994  0.40158  0.17040  Biso   1.000  C
  H125     1.0000 0.55410  0.42550  0.13159  Biso   1.000  H
  N19      1.0000 0.81796  0.08010  0.49207  Biso   1.000  N
  H126     1.0000 0.76313  0.12449  0.53264  Biso   1.000  H
  H127     1.0000 0.86441  0.17561  0.43913  Biso   1.000  H
  N20      1.0000 0.91918  0.34899  0.39022  Biso   1.000  N
  H128     1.0000 0.91609  0.25252  0.38191  Biso   1.000  H
  C113     1.0000 0.53064  0.11000  0.25357  Biso   1.000  C
  C114     1.0000 0.59188  0.07311  0.35208  Biso   1.000  C
  C115     1.0000 0.70821  0.42316  0.21043  Biso   1.000  C
  C116     1.0000 0.64697  0.33830  0.14314  Biso   1.000  C
  C117     1.0000 0.79955  0.01312  0.50899  Biso   1.000  C
  C118     1.0000 0.96228  0.35446  0.35145  Biso   1.000  C
  C119     1.0000 0.58251  0.09662  0.23083  Biso   1.000  C
  H129     1.0000 0.49208  0.12722  0.22789  Biso   1.000  H
  C120     1.0000 0.64440  0.05994  0.32952  Biso   1.000  C
  H130     1.0000 0.59500  0.06490  0.39351  Biso   1.000  H
  C121     1.0000 0.76171  0.38177  0.22144  Biso   1.000  C
  H131     1.0000 0.71071  0.46598  0.22970  Biso   1.000  H
  C122     1.0000 0.70058  0.29614  0.15452  Biso   1.000  C
  H132     1.0000 0.60801  0.32350  0.11638  Biso   1.000  H
  C123     1.0000 0.76827  0.97340  0.45145  Biso   1.000  C
  H133     1.0000 0.76863  0.01819  0.53404  Biso   1.000  H
  C124     1.0000 0.85922  0.97538  0.54518  Biso   1.000  C
  C125     1.0000 0.93390  0.40609  0.30141  Biso   1.000  C
  H134     1.0000 0.96639  0.30942  0.33313  Biso   1.000  H
  C126     1.0000 0.02731  0.37762  0.39017  Biso   1.000  C
  C127     1.0000 0.63942  0.07235  0.26932  Biso   1.000  C
  C128     1.0000 0.57428  0.10599  0.16485  Biso   1.000  C
  C129     1.0000 0.70334  0.02908  0.36756  Biso   1.000  C
  C130     1.0000 0.75775  0.31823  0.19346  Biso   1.000  C
  C131     1.0000 0.82310  0.40599  0.26079  Biso   1.000  C
  C132     1.0000 0.69855  0.22972  0.12491  Biso   1.000  C
  N21      1.0000 0.70821  0.00725  0.42023  Biso   1.000  N
  H135     1.0000 0.79762  0.97239  0.42460  Biso   1.000  H
  C133     1.0000 0.75301  0.90100  0.46680  Biso   1.000  C
  H136     1.0000 0.87815  0.00030  0.58313  Biso   1.000  H
  C134     1.0000 0.84452  0.90399  0.56007  Biso   1.000  C
  H137     1.0000 0.89120  0.97431  0.52163  Biso   1.000  H
  N22      1.0000 0.87536  0.37701  0.26219  Biso   1.000  N
  H138     1.0000 0.92351  0.44900  0.31982  Biso   1.000  H
  C135     1.0000 0.98083  0.42104  0.26399  Biso   1.000  C
  C136     1.0000 0.07328  0.39322  0.35181  Biso   1.000  C
  H139     1.0000 0.04589  0.34159  0.41973  Biso   1.000  H
  H140     1.0000 0.02189  0.41860  0.41301  Biso   1.000  H
  H141     1.0000 0.67511  0.06419  0.25380  Biso   1.000  H
  N23      1.0000 0.61628  0.08542  0.13958  Biso   1.000  N
  H142     1.0000 0.53690  0.12768  0.14120  Biso   1.000  H
  H143     1.0000 0.73931  0.02549  0.35172  Biso   1.000  H
  H144     1.0000 0.79451  0.29001  0.20109  Biso   1.000  H
  H145     1.0000 0.82332  0.44439  0.28579  Biso   1.000  H
  N24      1.0000 0.64873  0.20809  0.08660  Biso   1.000  N
  H146     1.0000 0.73569  0.20211  0.13470  Biso   1.000  H
  H147     1.0000 0.72061  0.90221  0.48990  Biso   1.000  H
  H148     1.0000 0.73484  0.87572  0.42893  Biso   1.000  H
  C137     1.0000 0.81242  0.86442  0.50371  Biso   1.000  C
  H149     1.0000 0.81613  0.90500  0.58742  Biso   1.000  H
  H150     1.0000 0.88464  0.88088  0.58151  Biso   1.000  H
  H151     1.0000 0.96249  0.45610  0.23349  Biso   1.000  H
  H152     1.0000 0.98761  0.37939  0.24242  Biso   1.000  H
  C138     1.0000 0.04503  0.44581  0.30402  Biso   1.000  C
  H153     1.0000 0.11418  0.41019  0.37812  Biso   1.000  H
  H154     1.0000 0.08229  0.35112  0.33209  Biso   1.000  H
  C139     1.0000 0.60292  0.09449  0.07464  Biso   1.000  C
  C140     1.0000 0.65427  0.14095  0.06115  Biso   1.000  C
  H155     1.0000 0.80030  0.81892  0.51522  Biso   1.000  H
  H156     1.0000 0.84282  0.85819  0.47880  Biso   1.000  H
  H157     1.0000 0.07487  0.45422  0.27889  Biso   1.000  H
  H158     1.0000 0.03887  0.48888  0.32370  Biso   1.000  H
  C141     1.0000 0.60438  0.02538  0.04549  Biso   1.000  C
  H159     1.0000 0.55980  0.11552  0.05871  Biso   1.000  H
  H160     1.0000 0.69761  0.12180  0.08028  Biso   1.000  H
  C142     1.0000 0.64548  0.14820  0.99332  Biso   1.000  C
  H161     1.0000 0.64537  0.00269  0.06480  Biso   1.000  H
  H162     1.0000 0.56950  0.99691  0.05248  Biso   1.000  H
  C143     1.0000 0.59691  0.03111  0.97780  Biso   1.000  C
  H163     1.0000 0.68006  0.17683  0.98592  Biso   1.000  H
  H164     1.0000 0.60426  0.17080  0.97482  Biso   1.000  H
  C144     1.0000 0.64666  0.07798  0.96399  Biso   1.000  C
  H165     1.0000 0.60095  0.98561  0.96119  Biso   1.000  H
  H166     1.0000 0.55366  0.04859  0.95781  Biso   1.000  H
  H167     1.0000 0.63818  0.08330  0.91972  Biso   1.000  H
  H168     1.0000 0.68959  0.05761  0.97942  Biso   1.000  H
  C145     1.0000 0.14663  0.57800  0.46400  Biso   1.000  C
  C146     1.0000 0.14545  0.64822  0.49333  Biso   1.000  C
  H169     1.0000 0.13815  0.58332  0.41973  Biso   1.000  H
  H170     1.0000 0.18956  0.55758  0.47943  Biso   1.000  H
  C147     1.0000 0.09683  0.53108  0.47781  Biso   1.000  C
  C148     1.0000 0.15434  0.64098  0.56116  Biso   1.000  C
  H171     1.0000 0.18003  0.67680  0.48593  Biso   1.000  H
  H172     1.0000 0.10423  0.67082  0.47483  Biso   1.000  H
  H173     1.0000 0.10092  0.48559  0.46120  Biso   1.000  H
  H174     1.0000 0.05363  0.54861  0.45782  Biso   1.000  H
  C149     1.0000 0.10444  0.52541  0.54550  Biso   1.000  C
  N25      1.0000 0.14879  0.70811  0.58661  Biso   1.000  N
  H175     1.0000 0.19764  0.62178  0.58034  Biso   1.000  H
  C150     1.0000 0.10298  0.59447  0.57465  Biso   1.000  C
  H176     1.0000 0.06953  0.49688  0.55254  Biso   1.000  H
  H177     1.0000 0.14543  0.50271  0.56481  Biso   1.000  H
  C151     1.0000 0.19861  0.72975  0.62492  Biso   1.000  C
  N26      1.0000 0.11629  0.58540  0.63959  Biso   1.000  N
  H178     1.0000 0.05986  0.61549  0.55872  Biso   1.000  H
  C152     1.0000 0.20059  0.79612  0.65453  Biso   1.000  C
  H179     1.0000 0.23576  0.70208  0.63472  Biso   1.000  H
  C153     1.0000 0.07435  0.60597  0.66486  Biso   1.000  C
  C154     1.0000 0.14703  0.83832  0.64315  Biso   1.000  C
  C155     1.0000 0.25781  0.81821  0.69347  Biso   1.000  C
  C156     1.0000 0.08252  0.59665  0.73084  Biso   1.000  C
  H180     1.0000 0.03696  0.62770  0.64121  Biso   1.000  H
  C157     1.0000 0.14996  0.90161  0.67041  Biso   1.000  C
  H181     1.0000 0.10804  0.82348  0.61644  Biso   1.000  H
  C158     1.0000 0.26173  0.88180  0.72145  Biso   1.000  C
  H182     1.0000 0.29454  0.78999  0.70114  Biso   1.000  H
  C159     1.0000 0.13943  0.57233  0.76933  Biso   1.000  C
  C160     1.0000 0.03071  0.60997  0.75363  Biso   1.000  C
  C161     1.0000 0.20827  0.92314  0.71044  Biso   1.000  C
  C162     1.0000 0.09307  0.94548  0.65394  Biso   1.000  C
  C163     1.0000 0.32317  0.90601  0.76085  Biso   1.000  C
  C164     1.0000 0.14443  0.55991  0.82958  Biso   1.000  C
  H183     1.0000 0.17517  0.56422  0.75381  Biso   1.000  H
  C165     1.0000 0.03558  0.59786  0.81522  Biso   1.000  C
  H184     1.0000 0.99219  0.62720  0.72790  Biso   1.000  H
  H185     1.0000 0.21073  0.96600  0.72971  Biso   1.000  H
  H186     1.0000 0.05412  0.92552  0.63160  Biso   1.000  H
  N27      1.0000 0.09188  0.00790  0.66716  Biso   1.000  N
  N28      1.0000 0.37542  0.87703  0.76220  Biso   1.000  N
  H187     1.0000 0.32334  0.94442  0.78585  Biso   1.000  H
  C166     1.0000 0.09190  0.57314  0.85209  Biso   1.000  C
  C167     1.0000 0.20340  0.52911  0.86757  Biso   1.000  C
  C168     1.0000 0.98080  0.61058  0.84036  Biso   1.000  C
  C169     1.0000 0.03114  0.04347  0.64487  Biso   1.000  C
  C170     1.0000 0.43396  0.90606  0.80142  Biso   1.000  C
  H188     1.0000 0.09506  0.56488  0.89352  Biso   1.000  H
  N29      1.0000 0.20828  0.50727  0.92024  Biso   1.000  N
  H189     1.0000 0.23937  0.52551  0.85173  Biso   1.000  H
  N30      1.0000 0.92708  0.63024  0.80891  Biso   1.000  N
  H190     1.0000 0.98638  0.60359  0.88233  Biso   1.000  H
  H191     1.0000 0.99826  0.01099  0.62172  Biso   1.000  H
  C171     1.0000 0.00927  0.07144  0.69816  Biso   1.000  C
  C172     1.0000 0.03976  0.10032  0.60299  Biso   1.000  C
  H192     1.0000 0.42357  0.94898  0.81983  Biso   1.000  H
  C173     1.0000 0.48089  0.92106  0.76401  Biso   1.000  C
  C174     1.0000 0.46229  0.85449  0.85146  Biso   1.000  C
  C175     1.0000 0.26834  0.47343  0.95151  Biso   1.000  C
  C176     1.0000 0.87646  0.63855  0.83964  Biso   1.000  C
  N31      1.0000 0.99685  0.01429  0.73395  Biso   1.000  N
  C177     1.0000 0.94830  0.11334  0.67574  Biso   1.000  C
  H193     1.0000 0.04374  0.10052  0.72371  Biso   1.000  H
  C178     1.0000 0.97835  0.14288  0.58110  Biso   1.000  C
  H194     1.0000 0.05122  0.08071  0.56770  Biso   1.000  H
  H195     1.0000 0.07526  0.13001  0.62452  Biso   1.000  H
  H196     1.0000 0.46256  0.95612  0.73354  Biso   1.000  H
  H197     1.0000 0.48763  0.87941  0.74243  Biso   1.000  H
  C179     1.0000 0.54509  0.94579  0.80403  Biso   1.000  C
  N32      1.0000 0.41924  0.84901  0.89023  Biso   1.000  N
  C180     1.0000 0.52741  0.87759  0.89018  Biso   1.000  C
  H198     1.0000 0.46645  0.80939  0.83314  Biso   1.000  H
  H199     1.0000 0.29764  0.47241  0.92461  Biso   1.000  H
  C181     1.0000 0.25307  0.40102  0.96681  Biso   1.000  C
  C182     1.0000 0.29952  0.51315  0.00900  Biso   1.000  C
  H200     1.0000 0.89441  0.63171  0.88404  Biso   1.000  H
  C183     1.0000 0.82476  0.58590  0.81482  Biso   1.000  C
  C184     1.0000 0.84914  0.70978  0.82763  Biso   1.000  C
  C185     1.0000 0.02885  0.01029  0.78819  Biso   1.000  C
  H201     1.0000 0.91296  0.08330  0.65444  Biso   1.000  H
  H202     1.0000 0.93661  0.13340  0.71085  Biso   1.000  H
  C186     1.0000 0.95684  0.16978  0.63323  Biso   1.000  C
  H203     1.0000 0.98648  0.18118  0.55633  Biso   1.000  H
  H204     1.0000 0.94416  0.11461  0.55543  Biso   1.000  H
  H205     1.0000 0.57495  0.95420  0.77894  Biso   1.000  H
  H206     1.0000 0.53893  0.98890  0.82371  Biso   1.000  H
  C187     1.0000 0.57334  0.89320  0.85182  Biso   1.000  C
  C188     1.0000 0.40205  0.79024  0.90070  Biso   1.000  C
  H207     1.0000 0.54595  0.84162  0.91974  Biso   1.000  H
  H208     1.0000 0.52196  0.91858  0.91302  Biso   1.000  H
  H209     1.0000 0.22068  0.40219  0.98991  Biso   1.000  H
  H210     1.0000 0.23485  0.37569  0.92895  Biso   1.000  H
  C189     1.0000 0.31238  0.36439  0.00372  Biso   1.000  C
  N33      1.0000 0.31797  0.58008  0.99208  Biso   1.000  N
  C190     1.0000 0.35914  0.47540  0.04519  Biso   1.000  C
  H211     1.0000 0.26859  0.51821  0.03400  Biso   1.000  H
  H212     1.0000 0.84289  0.53990  0.82443  Biso   1.000  H
  H213     1.0000 0.81000  0.59011  0.77032  Biso   1.000  H
  C191     1.0000 0.76796  0.59482  0.84144  Biso   1.000  C
  N34      1.0000 0.89931  0.75842  0.85534  Biso   1.000  N
  C192     1.0000 0.79265  0.71880  0.85503  Biso   1.000  C
  H214     1.0000 0.83461  0.71789  0.78314  Biso   1.000  H
  C193     1.0000 0.02054  0.95440  0.82777  Biso   1.000  C
  H215     1.0000 0.05945  0.04459  0.80412  Biso   1.000  H
  H216     1.0000 0.91579  0.19400  0.61793  Biso   1.000  H
  H217     1.0000 0.98866  0.20272  0.65593  Biso   1.000  H
  H218     1.0000 0.61424  0.91022  0.87813  Biso   1.000  H
  H219     1.0000 0.58236  0.85109  0.83215  Biso   1.000  H
  C194     1.0000 0.36060  0.77834  0.94140  Biso   1.000  C
  H220     1.0000 0.41615  0.75250  0.88192  Biso   1.000  H
  H221     1.0000 0.34284  0.35821  0.97881  Biso   1.000  H
  H222     1.0000 0.30027  0.31889  0.01523  Biso   1.000  H
  C195     1.0000 0.34449  0.40401  0.06009  Biso   1.000  C
  C196     1.0000 0.29258  0.63115  0.00918  Biso   1.000  C
  H223     1.0000 0.39117  0.47429  0.02164  Biso   1.000  H
  H224     1.0000 0.37807  0.50028  0.08315  Biso   1.000  H
  H225     1.0000 0.78179  0.58580  0.88544  Biso   1.000  H
  H226     1.0000 0.73429  0.56158  0.82281  Biso   1.000  H
  C197     1.0000 0.74078  0.66662  0.83043  Biso   1.000  C
  C198     1.0000 0.91788  0.79896  0.82127  Biso   1.000  C
  H227     1.0000 0.80779  0.71429  0.89943  Biso   1.000  H
  H228     1.0000 0.77460  0.76491  0.84573  Biso   1.000  H
  C199     1.0000 0.05592  0.95400  0.88774  Biso   1.000  C
  C200     1.0000 0.97643  0.90232  0.80570  Biso   1.000  C
  C201     1.0000 0.34701  0.71292  0.95548  Biso   1.000  C
  C202     1.0000 0.33552  0.83346  0.96627  Biso   1.000  C
  H229     1.0000 0.31610  0.40498  0.08743  Biso   1.000  H
  H230     1.0000 0.38456  0.38091  0.08152  Biso   1.000  H
  C203     1.0000 0.30736  0.70112  0.99411  Biso   1.000  C
  H231     1.0000 0.26308  0.62451  0.03260  Biso   1.000  H
  H232     1.0000 0.72260  0.67381  0.78652  Biso   1.000  H
  H233     1.0000 0.70598  0.67209  0.85042  Biso   1.000  H
  C204     1.0000 0.96755  0.85059  0.84379  Biso   1.000  C
  H234     1.0000 0.89898  0.79612  0.77903  Biso   1.000  H
  H235     1.0000 0.08536  0.98951  0.90282  Biso   1.000  H
  C205     1.0000 0.04832  0.90140  0.92624  Biso   1.000  C
  H236     1.0000 0.95249  0.90232  0.76455  Biso   1.000  H
  H237     1.0000 0.36447  0.67558  0.93914  Biso   1.000  H
  H238     1.0000 0.34497  0.87840  0.95674  Biso   1.000  H
  C206     1.0000 0.29709  0.82257  0.00449  Biso   1.000  C
  C207     1.0000 0.28301  0.75619  0.01830  Biso   1.000  C
  C208     1.0000 0.00405  0.84983  0.90381  Biso   1.000  C
  C209     1.0000 0.08331  0.89922  0.99072  Biso   1.000  C
  C210     1.0000 0.27254  0.88139  0.03075  Biso   1.000  C
  H239     1.0000 0.25647  0.74880  0.04452  Biso   1.000  H
  H240     1.0000 0.99888  0.81390  0.92962  Biso   1.000  H
  N35      1.0000 0.11969  0.94670  0.01667  Biso   1.000  N
  H241     1.0000 0.07828  0.86062  0.01374  Biso   1.000  H
  N36      1.0000 0.23871  0.87511  0.06794  Biso   1.000  N
  H242     1.0000 0.28227  0.92562  0.01961  Biso   1.000  H
  C211     1.0000 0.14800  0.93930  0.08157  Biso   1.000  C
  C212     1.0000 0.22093  0.93682  0.09407  Biso   1.000  C
  C213     1.0000 0.12740  0.99858  0.11383  Biso   1.000  C
  H243     1.0000 0.13261  0.89618  0.09565  Biso   1.000  H
  H244     1.0000 0.23659  0.97740  0.07624  Biso   1.000  H
  C214     1.0000 0.25132  0.93439  0.16243  Biso   1.000  C
  C215     1.0000 0.15860  0.99630  0.18261  Biso   1.000  C
  H245     1.0000 0.08038  0.99802  0.10621  Biso   1.000  H
  H246     1.0000 0.13929  0.04150  0.09732  Biso   1.000  H
  H247     1.0000 0.23890  0.89168  0.17873  Biso   1.000  H
  H248     1.0000 0.29838  0.93469  0.17033  Biso   1.000  H
  C216     1.0000 0.23088  0.99412  0.19493  Biso   1.000  C
  H249     1.0000 0.14367  0.95562  0.20012  Biso   1.000  H
  H250     1.0000 0.14591  0.03678  0.20201  Biso   1.000  H
  H251     1.0000 0.25060  0.98992  0.23892  Biso   1.000  H
  H252     1.0000 0.24621  0.03689  0.18112  Biso   1.000  H
  C217     1.0000 0.85340  0.57800  0.53602  Biso   1.000  C
  C218     1.0000 0.85464  0.64822  0.50673  Biso   1.000  C
  C219     1.0000 0.90321  0.53108  0.52226  Biso   1.000  C
  H253     1.0000 0.86194  0.58332  0.58034  Biso   1.000  H
  H254     1.0000 0.81053  0.55758  0.52063  Biso   1.000  H
  C220     1.0000 0.84574  0.64098  0.43886  Biso   1.000  C
  H255     1.0000 0.82001  0.67680  0.51414  Biso   1.000  H
  H256     1.0000 0.89582  0.67082  0.52524  Biso   1.000  H
  C221     1.0000 0.89559  0.52541  0.45452  Biso   1.000  C
  H257     1.0000 0.89911  0.48559  0.53882  Biso   1.000  H
  H258     1.0000 0.94640  0.54861  0.54220  Biso   1.000  H
  C222     1.0000 0.89710  0.59447  0.42537  Biso   1.000  C
  N37      1.0000 0.85124  0.70811  0.41341  Biso   1.000  N
  H259     1.0000 0.80241  0.62178  0.41973  Biso   1.000  H
  H260     1.0000 0.93052  0.49688  0.44753  Biso   1.000  H
  H261     1.0000 0.85460  0.50271  0.43521  Biso   1.000  H
  N38      1.0000 0.88374  0.58540  0.36043  Biso   1.000  N
  H262     1.0000 0.94021  0.61549  0.44130  Biso   1.000  H
  C223     1.0000 0.80148  0.72975  0.37514  Biso   1.000  C
  C224     1.0000 0.92573  0.60597  0.33516  Biso   1.000  C
  C225     1.0000 0.79944  0.79612  0.34549  Biso   1.000  C
  H263     1.0000 0.76432  0.70208  0.36531  Biso   1.000  H
  C226     1.0000 0.91751  0.59665  0.26918  Biso   1.000  C
  H264     1.0000 0.96312  0.62770  0.35881  Biso   1.000  H
  C227     1.0000 0.85300  0.83832  0.35687  Biso   1.000  C
  C228     1.0000 0.74222  0.81821  0.30655  Biso   1.000  C
  C229     1.0000 0.86061  0.57233  0.23074  Biso   1.000  C
  C230     1.0000 0.96933  0.60997  0.24644  Biso   1.000  C
  C231     1.0000 0.85007  0.90161  0.32961  Biso   1.000  C
  H265     1.0000 0.89200  0.82348  0.38363  Biso   1.000  H
  C232     1.0000 0.73832  0.88180  0.27862  Biso   1.000  C
  H266     1.0000 0.70550  0.78999  0.29892  Biso   1.000  H
  C233     1.0000 0.85562  0.55991  0.17049  Biso   1.000  C
  H267     1.0000 0.82491  0.56422  0.24621  Biso   1.000  H
  C234     1.0000 0.96445  0.59786  0.18480  Biso   1.000  C
  H268     1.0000 0.00789  0.62720  0.27212  Biso   1.000  H
  C235     1.0000 0.79182  0.92314  0.28963  Biso   1.000  C
  C236     1.0000 0.90696  0.94548  0.34608  Biso   1.000  C
  C237     1.0000 0.67692  0.90601  0.23922  Biso   1.000  C
  C238     1.0000 0.79663  0.52911  0.13245  Biso   1.000  C
  C239     1.0000 0.90814  0.57314  0.14793  Biso   1.000  C
  C240     1.0000 0.01927  0.61058  0.15966  Biso   1.000  C
  H269     1.0000 0.78930  0.96600  0.27031  Biso   1.000  H
  H270     1.0000 0.94591  0.92552  0.36842  Biso   1.000  H
  N39      1.0000 0.90819  0.00790  0.33286  Biso   1.000  N
  N40      1.0000 0.62466  0.87703  0.23782  Biso   1.000  N
  H271     1.0000 0.67670  0.94442  0.21422  Biso   1.000  H
  N41      1.0000 0.79176  0.50727  0.07979  Biso   1.000  N
  H272     1.0000 0.76071  0.52551  0.14829  Biso   1.000  H
  H273     1.0000 0.90497  0.56488  0.10650  Biso   1.000  H
  N42      1.0000 0.07300  0.63024  0.19111  Biso   1.000  N
  H274     1.0000 0.01366  0.60359  0.11769  Biso   1.000  H
  C241     1.0000 0.96894  0.04347  0.35515  Biso   1.000  C
  C242     1.0000 0.56612  0.90606  0.19861  Biso   1.000  C
  C243     1.0000 0.73175  0.47343  0.04856  Biso   1.000  C
  C244     1.0000 0.12363  0.63855  0.16043  Biso   1.000  C
  C245     1.0000 0.99078  0.07144  0.30190  Biso   1.000  C
  C246     1.0000 0.96027  0.10032  0.39703  Biso   1.000  C
  H275     1.0000 0.00177  0.01099  0.37830  Biso   1.000  H
  C247     1.0000 0.53774  0.85449  0.14856  Biso   1.000  C
  H276     1.0000 0.57651  0.94898  0.18019  Biso   1.000  H
  C248     1.0000 0.51918  0.92106  0.23602  Biso   1.000  C
  H277     1.0000 0.70239  0.47241  0.07541  Biso   1.000  H
  C249     1.0000 0.74696  0.40102  0.03321  Biso   1.000  C
  C250     1.0000 0.70051  0.51315  0.99102  Biso   1.000  C
  H278     1.0000 0.10568  0.63171  0.11602  Biso   1.000  H
  C251     1.0000 0.17529  0.58590  0.18525  Biso   1.000  C
  C252     1.0000 0.15094  0.70978  0.17239  Biso   1.000  C
  N43      1.0000 0.00323  0.01429  0.26607  Biso   1.000  N
  H279     1.0000 0.95629  0.10052  0.27631  Biso   1.000  H
  C253     1.0000 0.05179  0.11334  0.32433  Biso   1.000  C
  H280     1.0000 0.94881  0.08071  0.43232  Biso   1.000  H
  H281     1.0000 0.92482  0.13001  0.37550  Biso   1.000  H
  C254     1.0000 0.02169  0.14288  0.41896  Biso   1.000  C
  N44      1.0000 0.58084  0.84901  0.10979  Biso   1.000  N
  C255     1.0000 0.47266  0.87759  0.10984  Biso   1.000  C
  H282     1.0000 0.53359  0.80939  0.16693  Biso   1.000  H
  H283     1.0000 0.53753  0.95612  0.26652  Biso   1.000  H
  H284     1.0000 0.51240  0.87941  0.25759  Biso   1.000  H
  C256     1.0000 0.45494  0.94579  0.19599  Biso   1.000  C
  H285     1.0000 0.77940  0.40219  0.01011  Biso   1.000  H
  H286     1.0000 0.76519  0.37569  0.07112  Biso   1.000  H
  C257     1.0000 0.68769  0.36439  0.99630  Biso   1.000  C
  N45      1.0000 0.68206  0.58008  0.00794  Biso   1.000  N
  C258     1.0000 0.64089  0.47540  0.95483  Biso   1.000  C
  H287     1.0000 0.73149  0.51821  0.96602  Biso   1.000  H
  H288     1.0000 0.15714  0.53990  0.17559  Biso   1.000  H
  H289     1.0000 0.19008  0.59011  0.22970  Biso   1.000  H
  C259     1.0000 0.23207  0.59482  0.15858  Biso   1.000  C
  N46      1.0000 0.10073  0.75842  0.14472  Biso   1.000  N
  C260     1.0000 0.20743  0.71880  0.14499  Biso   1.000  C
  H290     1.0000 0.16548  0.71789  0.21693  Biso   1.000  H
  C261     1.0000 0.97119  0.01029  0.21187  Biso   1.000  C
  H291     1.0000 0.08709  0.08330  0.34563  Biso   1.000  H
  H292     1.0000 0.06348  0.13340  0.28922  Biso   1.000  H
  C262     1.0000 0.04324  0.16978  0.36679  Biso   1.000  C
  H293     1.0000 0.01361  0.18118  0.44374  Biso   1.000  H
  H294     1.0000 0.05587  0.11461  0.44459  Biso   1.000  H
  C263     1.0000 0.59798  0.79024  0.09933  Biso   1.000  C
  C264     1.0000 0.42669  0.89320  0.14820  Biso   1.000  C
  H295     1.0000 0.45408  0.84162  0.08028  Biso   1.000  H
  H296     1.0000 0.47807  0.91858  0.08701  Biso   1.000  H
  H297     1.0000 0.42510  0.95420  0.22112  Biso   1.000  H
  H298     1.0000 0.46110  0.98890  0.17631  Biso   1.000  H
  H299     1.0000 0.65719  0.35821  0.02121  Biso   1.000  H
  H300     1.0000 0.69976  0.31889  0.98479  Biso   1.000  H
  C265     1.0000 0.65559  0.40401  0.93994  Biso   1.000  C
  C266     1.0000 0.70745  0.63115  0.99084  Biso   1.000  C
  H301     1.0000 0.60887  0.47429  0.97843  Biso   1.000  H
  H302     1.0000 0.62197  0.50028  0.91692  Biso   1.000  H
  H303     1.0000 0.21825  0.58580  0.11462  Biso   1.000  H
  H304     1.0000 0.26579  0.56158  0.17721  Biso   1.000  H
  C267     1.0000 0.25927  0.66662  0.16963  Biso   1.000  C
  C268     1.0000 0.08216  0.79896  0.17879  Biso   1.000  C
  H305     1.0000 0.19224  0.71429  0.10059  Biso   1.000  H
  H306     1.0000 0.22548  0.76491  0.15429  Biso   1.000  H
  C269     1.0000 0.97949  0.95440  0.17225  Biso   1.000  C
  H307     1.0000 0.94058  0.04459  0.19590  Biso   1.000  H
  H308     1.0000 0.08429  0.19400  0.38209  Biso   1.000  H
  H309     1.0000 0.01137  0.20272  0.34410  Biso   1.000  H
  C270     1.0000 0.63948  0.77834  0.05862  Biso   1.000  C
  H310     1.0000 0.58388  0.75250  0.11810  Biso   1.000  H
  H311     1.0000 0.38579  0.91022  0.12189  Biso   1.000  H
  H312     1.0000 0.41773  0.85109  0.16792  Biso   1.000  H
  H313     1.0000 0.68397  0.40498  0.91259  Biso   1.000  H
  H314     1.0000 0.61547  0.38091  0.91850  Biso   1.000  H
  C271     1.0000 0.69267  0.70112  0.00591  Biso   1.000  C
  H315     1.0000 0.73699  0.62451  0.96742  Biso   1.000  H
  H316     1.0000 0.27748  0.67381  0.21350  Biso   1.000  H
  H317     1.0000 0.29405  0.67209  0.14960  Biso   1.000  H
  C272     1.0000 0.03252  0.85059  0.15623  Biso   1.000  C
  H318     1.0000 0.10105  0.79612  0.22099  Biso   1.000  H
  C273     1.0000 0.02361  0.90232  0.19432  Biso   1.000  C
  C274     1.0000 0.94416  0.95400  0.11228  Biso   1.000  C
  C275     1.0000 0.65307  0.71292  0.04454  Biso   1.000  C
  C276     1.0000 0.66453  0.83346  0.03380  Biso   1.000  C
  C277     1.0000 0.71708  0.75619  0.98177  Biso   1.000  C
  C278     1.0000 0.99603  0.84983  0.09621  Biso   1.000  C
  H319     1.0000 0.04755  0.90232  0.23552  Biso   1.000  H
  C279     1.0000 0.95172  0.90140  0.07378  Biso   1.000  C
  H320     1.0000 0.91467  0.98951  0.09720  Biso   1.000  H
  H321     1.0000 0.63557  0.67558  0.06092  Biso   1.000  H
  C280     1.0000 0.70295  0.82257  0.99558  Biso   1.000  C
  H322     1.0000 0.65507  0.87840  0.04332  Biso   1.000  H
  H323     1.0000 0.74356  0.74880  0.95550  Biso   1.000  H
  H324     1.0000 0.00115  0.81390  0.07040  Biso   1.000  H
  C281     1.0000 0.91678  0.89922  0.00934  Biso   1.000  C
  C282     1.0000 0.72749  0.88139  0.96927  Biso   1.000  C
  N47      1.0000 0.88038  0.94670  0.98335  Biso   1.000  N
  H325     1.0000 0.92177  0.86062  0.98633  Biso   1.000  H
  N48      1.0000 0.76134  0.87511  0.93213  Biso   1.000  N
  H326     1.0000 0.71776  0.92562  0.98041  Biso   1.000  H
  C283     1.0000 0.85209  0.93930  0.91850  Biso   1.000  C
  C284     1.0000 0.77910  0.93682  0.90595  Biso   1.000  C
  C285     1.0000 0.87268  0.99858  0.88619  Biso   1.000  C
  H327     1.0000 0.86748  0.89618  0.90442  Biso   1.000  H
  H328     1.0000 0.76345  0.97740  0.92383  Biso   1.000  H
  C286     1.0000 0.74872  0.93439  0.83763  Biso   1.000  C
  C287     1.0000 0.84148  0.99630  0.81741  Biso   1.000  C
  H329     1.0000 0.91965  0.99802  0.89382  Biso   1.000  H
  H330     1.0000 0.86078  0.04150  0.90271  Biso   1.000  H
  H331     1.0000 0.76117  0.89168  0.82130  Biso   1.000  H
  H332     1.0000 0.70166  0.93469  0.82969  Biso   1.000  H
  C288     1.0000 0.76915  0.99412  0.80510  Biso   1.000  C
  H333     1.0000 0.85636  0.95562  0.79991  Biso   1.000  H
  H334     1.0000 0.85416  0.03678  0.79801  Biso   1.000  H
  H335     1.0000 0.74948  0.98992  0.76110  Biso   1.000  H
  H336     1.0000 0.75387  0.03689  0.81890  Biso   1.000  H
